@<TRIPOS>MOLECULE
/home/cewinharhar/GITHUB/reincatalyze/data/processed/docking_pred/2023-May-31-1603_sub9_nm5_bs15_s42_ex16_mel10_mts1000_k50_ec05_g099_lra3e-4_lrc9e-3/ca2511eb0ea692a115cf18c67ef7ccdfaa736476_ligand_9.pdbqt
 14 15 0 0 0
SMALL
GASTEIGER

@<TRIPOS>ATOM
      1  C          8.2310    0.1740   -2.5180 C.3     1  UNL1        0.0800
      2  C          7.8690   -1.2520   -2.6430 C.2     1  UNL1        0.1300
      3  C          8.9150   -2.2330   -2.9950 C.3     1  UNL1        0.0870
      4  O          6.7250   -1.5870   -2.4550 O.2     1  UNL1       -0.3000
      5  C          8.7830    0.4810   -1.1420 C.3     1  UNL1        0.0430
      6  C          7.7190    0.4230   -0.1350 C.2     1  UNL1       -0.0440
      7  C          7.7450   -0.5420    0.8500 C.2     1  UNL1        0.0080
      8  C          6.6640    1.3180   -0.1320 C.2     1  UNL1        0.0540
      9  C          6.7540   -0.6320    1.8240 C.2     1  UNL1        0.0510
     10  C          5.6580    1.2530    0.8290 C.2     1  UNL1        0.1660
     11  C          5.7120    0.2760    1.8010 C.2     1  UNL1        0.1650
     12  O          4.5040    1.9950    1.0790 O.2     1  UNL1       -0.4540
     13  O          4.6040    0.4330    2.6200 O.2     1  UNL1       -0.4540
     14  C          3.6880    1.3440    2.0190 C.3     1  UNL1        0.4680
@<TRIPOS>BOND
     1     3     2    1
     2     2     1    1
     3     2     4    2
     4     1     5    1
     5     5     6    1
     6     6     8    2
     7     6     7    1
     8     8    10    1
     9    10    12    1
    10    10    11    2
    11     7     9    2
    12    12    14    1
    13    11     9    1
    14    11    13    1
    15    14    13    1
