@<TRIPOS>MOLECULE
/home/cewinharhar/GITHUB/reincatalyze/data/processed/docking_pred/2023-May-31-1603_sub9_nm5_bs15_s42_ex16_mel10_mts1000_k50_ec05_g099_lra3e-4_lrc9e-3/ca2511eb0ea692a115cf18c67ef7ccdfaa736476_ligand_9.pdbqt
 14 15 0 0 0
SMALL
GASTEIGER

@<TRIPOS>ATOM
      1  C          5.2860   -0.1580    1.8320 C.3     1  UNL1        0.0800
      2  C          4.5260    1.0940    1.6430 C.2     1  UNL1        0.1300
      3  C          4.9570    2.0490    0.6030 C.3     1  UNL1        0.0870
      4  O          3.5680    1.3100    2.3430 O.2     1  UNL1       -0.3000
      5  C          6.7660    0.0580    1.5940 C.3     1  UNL1        0.0430
      6  C          7.2690   -0.8830    0.5890 C.2     1  UNL1       -0.0440
      7  C          7.1400   -0.6010   -0.7560 C.2     1  UNL1        0.0080
      8  C          7.8820   -2.0720    0.9410 C.2     1  UNL1        0.0540
      9  C          7.6030   -1.4680   -1.7420 C.2     1  UNL1        0.0510
     10  C          8.3560   -2.9600   -0.0230 C.2     1  UNL1        0.1660
     11  C          8.2110   -2.6490   -1.3590 C.2     1  UNL1        0.1650
     12  O          8.9980   -4.1960    0.0280 O.2     1  UNL1       -0.4540
     13  O          8.7610   -3.6880   -2.0960 O.2     1  UNL1       -0.4540
     14  C          9.0180   -4.7980   -1.2410 C.3     1  UNL1        0.4680
@<TRIPOS>BOND
     1    13    11    1
     2    13    14    1
     3     9    11    2
     4     9     7    1
     5    11    10    1
     6    14    12    1
     7     7     6    2
     8    10    12    1
     9    10     8    2
    10     6     8    1
    11     6     5    1
    12     3     2    1
    13     5     1    1
    14     2     1    1
    15     2     4    2
