@<TRIPOS>MOLECULE
/home/cewinharhar/GITHUB/reincatalyze/data/processed/docking_pred/2023-May-31-1603_sub9_nm5_bs15_s42_ex16_mel10_mts1000_k50_ec05_g099_lra3e-4_lrc9e-3/cb79d4b49cb2e7af28552c4e2a37cc688e9725fc_ligand_9.pdbqt
 14 15 0 0 0
SMALL
GASTEIGER

@<TRIPOS>ATOM
      1  C          8.4080    0.2890   -2.6020 C.3     1  UNL1        0.0800
      2  C          8.5090   -1.1710   -2.7990 C.2     1  UNL1        0.1300
      3  C          7.2720   -1.9680   -2.9260 C.3     1  UNL1        0.0870
      4  O          9.6000   -1.6820   -2.8510 O.2     1  UNL1       -0.3000
      5  C          8.9180    0.6960   -1.2350 C.3     1  UNL1        0.0430
      6  C          7.8660    0.5430   -0.2260 C.2     1  UNL1       -0.0440
      7  C          7.8970   -0.5170    0.6570 C.2     1  UNL1        0.0080
      8  C          6.8160    1.4380   -0.1210 C.2     1  UNL1        0.0540
      9  C          6.9170   -0.6980    1.6290 C.2     1  UNL1        0.0510
     10  C          5.8210    1.2820    0.8410 C.2     1  UNL1        0.1660
     11  C          5.8810    0.2130    1.7100 C.2     1  UNL1        0.1650
     12  O          4.6750    2.0020    1.1780 O.2     1  UNL1       -0.4540
     13  O          4.7830    0.2930    2.5550 O.2     1  UNL1       -0.4540
     14  C          3.8660    1.2640    2.0580 C.3     1  UNL1        0.4680
@<TRIPOS>BOND
     1     3     2    1
     2     4     2    2
     3     2     1    1
     4     1     5    1
     5     5     6    1
     6     6     8    2
     7     6     7    1
     8     8    10    1
     9     7     9    2
    10    10    12    1
    11    10    11    2
    12    12    14    1
    13     9    11    1
    14    11    13    1
    15    14    13    1
