MODEL 1
REMARK VINA RESULT:      -7.6      0.000      0.000
REMARK SMILES CC(=O)CCc1ccc2c(c1)OCO2
REMARK SMILES IDX 4 1 2 2 1 3 3 4 5 5 6 6 7 7 11 8 8 9 10 10 9 11 12 12 14 13
REMARK SMILES IDX 13 14
REMARK H PARENT
REMARK Flexibility Score: inf
ROOT
ATOM      1  C   UNL     1       5.573   1.901   1.300  1.00  0.00     0.080 C 
ENDROOT
BRANCH   1   2
ATOM      2  C   UNL     1       5.128   0.697   2.030  1.00  0.00     0.130 C 
ATOM      3  C   UNL     1       6.067  -0.430   2.201  1.00  0.00     0.087 C 
ATOM      4  O   UNL     1       4.007   0.659   2.473  1.00  0.00    -0.300 OA
ENDBRANCH   1   2
BRANCH   1   5
ATOM      5  C   UNL     1       5.398   1.732  -0.195  1.00  0.00     0.043 C 
BRANCH   5   6
ATOM      6  C   UNL     1       6.529   0.995  -0.766  1.00  0.00    -0.044 A 
ATOM      7  C   UNL     1       7.821   1.429  -0.554  1.00  0.00     0.008 A 
ATOM      8  C   UNL     1       6.351  -0.146  -1.529  1.00  0.00     0.054 A 
ATOM      9  C   UNL     1       8.923   0.759  -1.079  1.00  0.00     0.051 A 
ATOM     10  C   UNL     1       7.433  -0.837  -2.068  1.00  0.00     0.166 A 
ATOM     11  C   UNL     1       8.713  -0.378  -1.837  1.00  0.00     0.165 A 
ATOM     12  O   UNL     1       7.560  -1.983  -2.853  1.00  0.00    -0.454 OA
ATOM     13  O   UNL     1       9.593  -1.239  -2.478  1.00  0.00    -0.454 OA
ATOM     14  C   UNL     1       8.868  -2.103  -3.349  1.00  0.00     0.468 C 
ENDBRANCH   5   6
ENDBRANCH   1   5
TORSDOF 3
ENDMDL
MODEL 2
REMARK VINA RESULT:      -7.4      1.981      2.392
REMARK SMILES CC(=O)CCc1ccc2c(c1)OCO2
REMARK SMILES IDX 4 1 2 2 1 3 3 4 5 5 6 6 7 7 11 8 8 9 10 10 9 11 12 12 14 13
REMARK SMILES IDX 13 14
REMARK H PARENT
REMARK Flexibility Score: inf
ROOT
ATOM      1  C   UNL     1       5.673   1.236  -0.233  1.00  0.00     0.080 C 
ENDROOT
BRANCH   1   2
ATOM      2  C   UNL     1       5.046   1.231   1.104  1.00  0.00     0.130 C 
ATOM      3  C   UNL     1       5.308   0.102   2.019  1.00  0.00     0.087 C 
ATOM      4  O   UNL     1       4.331   2.149   1.421  1.00  0.00    -0.300 OA
ENDBRANCH   1   2
BRANCH   1   5
ATOM      5  C   UNL     1       7.177   1.080  -0.134  1.00  0.00     0.043 C 
BRANCH   5   6
ATOM      6  C   UNL     1       7.600  -0.202  -0.705  1.00  0.00    -0.044 A 
ATOM      7  C   UNL     1       7.642  -0.375  -2.073  1.00  0.00     0.008 A 
ATOM      8  C   UNL     1       7.968  -1.272   0.091  1.00  0.00     0.054 A 
ATOM      9  C   UNL     1       8.037  -1.577  -2.655  1.00  0.00     0.051 A 
ATOM     10  C   UNL     1       8.368  -2.486  -0.462  1.00  0.00     0.166 A 
ATOM     11  C   UNL     1       8.399  -2.628  -1.834  1.00  0.00     0.165 A 
ATOM     12  O   UNL     1       8.784  -3.706   0.071  1.00  0.00    -0.454 OA
ATOM     13  O   UNL     1       8.828  -3.917  -2.115  1.00  0.00    -0.454 OA
ATOM     14  C   UNL     1       8.815  -4.698  -0.923  1.00  0.00     0.468 C 
ENDBRANCH   5   6
ENDBRANCH   1   5
TORSDOF 3
ENDMDL
MODEL 3
REMARK VINA RESULT:      -7.2      2.089      2.666
REMARK SMILES CC(=O)CCc1ccc2c(c1)OCO2
REMARK SMILES IDX 4 1 2 2 1 3 3 4 5 5 6 6 7 7 11 8 8 9 10 10 9 11 12 12 14 13
REMARK SMILES IDX 13 14
REMARK H PARENT
REMARK Flexibility Score: inf
ROOT
ATOM      1  C   UNL     1       5.300  -0.098   1.990  1.00  0.00     0.080 C 
ENDROOT
BRANCH   1   2
ATOM      2  C   UNL     1       4.469   1.099   1.748  1.00  0.00     0.130 C 
ATOM      3  C   UNL     1       4.906   2.089   0.743  1.00  0.00     0.087 C 
ATOM      4  O   UNL     1       3.449   1.243   2.376  1.00  0.00    -0.300 OA
ENDBRANCH   1   2
BRANCH   1   5
ATOM      5  C   UNL     1       6.756   0.172   1.672  1.00  0.00     0.043 C 
BRANCH   5   6
ATOM      6  C   UNL     1       7.246  -0.772   0.664  1.00  0.00    -0.044 A 
ATOM      7  C   UNL     1       7.144  -0.473  -0.679  1.00  0.00     0.008 A 
ATOM      8  C   UNL     1       7.821  -1.982   1.012  1.00  0.00     0.054 A 
ATOM      9  C   UNL     1       7.597  -1.343  -1.667  1.00  0.00     0.051 A 
ATOM     10  C   UNL     1       8.283  -2.872   0.045  1.00  0.00     0.166 A 
ATOM     11  C   UNL     1       8.166  -2.544  -1.289  1.00  0.00     0.165 A 
ATOM     12  O   UNL     1       8.889  -4.127   0.092  1.00  0.00    -0.454 OA
ATOM     13  O   UNL     1       8.697  -3.591  -2.030  1.00  0.00    -0.454 OA
ATOM     14  C   UNL     1       8.911  -4.716  -1.183  1.00  0.00     0.468 C 
ENDBRANCH   5   6
ENDBRANCH   1   5
TORSDOF 3
ENDMDL
MODEL 4
REMARK VINA RESULT:      -7.1      1.228      1.390
REMARK SMILES CC(=O)CCc1ccc2c(c1)OCO2
REMARK SMILES IDX 4 1 2 2 1 3 3 4 5 5 6 6 7 7 11 8 8 9 10 10 9 11 12 12 14 13
REMARK SMILES IDX 13 14
REMARK H PARENT
REMARK Flexibility Score: inf
ROOT
ATOM      1  C   UNL     1       6.238   1.356   0.906  1.00  0.00     0.080 C 
ENDROOT
BRANCH   1   2
ATOM      2  C   UNL     1       5.571   0.529   1.932  1.00  0.00     0.130 C 
ATOM      3  C   UNL     1       6.289  -0.628   2.503  1.00  0.00     0.087 C 
ATOM      4  O   UNL     1       4.454   0.817   2.283  1.00  0.00    -0.300 OA
ENDBRANCH   1   2
BRANCH   1   5
ATOM      5  C   UNL     1       5.735   1.017  -0.483  1.00  0.00     0.043 C 
BRANCH   5   6
ATOM      6  C   UNL     1       6.697   0.162  -1.184  1.00  0.00    -0.044 A 
ATOM      7  C   UNL     1       7.373   0.635  -2.290  1.00  0.00     0.008 A 
ATOM      8  C   UNL     1       6.960  -1.133  -0.774  1.00  0.00     0.054 A 
ATOM      9  C   UNL     1       8.293  -0.145  -2.984  1.00  0.00     0.051 A 
ATOM     10  C   UNL     1       7.876  -1.937  -1.449  1.00  0.00     0.166 A 
ATOM     11  C   UNL     1       8.536  -1.435  -2.551  1.00  0.00     0.165 A 
ATOM     12  O   UNL     1       8.335  -3.242  -1.274  1.00  0.00    -0.454 OA
ATOM     13  O   UNL     1       9.378  -2.429  -3.028  1.00  0.00    -0.454 OA
ATOM     14  C   UNL     1       9.064  -3.667  -2.397  1.00  0.00     0.468 C 
ENDBRANCH   5   6
ENDBRANCH   1   5
TORSDOF 3
ENDMDL
MODEL 5
REMARK VINA RESULT:      -7.0      1.217      5.298
REMARK SMILES CC(=O)CCc1ccc2c(c1)OCO2
REMARK SMILES IDX 4 1 2 2 1 3 3 4 5 5 6 6 7 7 11 8 8 9 10 10 9 11 12 12 14 13
REMARK SMILES IDX 13 14
REMARK H PARENT
REMARK Flexibility Score: inf
ROOT
ATOM      1  C   UNL     1       8.408   0.289  -2.602  1.00  0.00     0.080 C 
ENDROOT
BRANCH   1   2
ATOM      2  C   UNL     1       8.509  -1.171  -2.799  1.00  0.00     0.130 C 
ATOM      3  C   UNL     1       7.272  -1.968  -2.926  1.00  0.00     0.087 C 
ATOM      4  O   UNL     1       9.600  -1.682  -2.851  1.00  0.00    -0.300 OA
ENDBRANCH   1   2
BRANCH   1   5
ATOM      5  C   UNL     1       8.918   0.696  -1.235  1.00  0.00     0.043 C 
BRANCH   5   6
ATOM      6  C   UNL     1       7.866   0.543  -0.226  1.00  0.00    -0.044 A 
ATOM      7  C   UNL     1       7.897  -0.517   0.657  1.00  0.00     0.008 A 
ATOM      8  C   UNL     1       6.816   1.438  -0.121  1.00  0.00     0.054 A 
ATOM      9  C   UNL     1       6.917  -0.698   1.629  1.00  0.00     0.051 A 
ATOM     10  C   UNL     1       5.821   1.282   0.841  1.00  0.00     0.166 A 
ATOM     11  C   UNL     1       5.881   0.213   1.710  1.00  0.00     0.165 A 
ATOM     12  O   UNL     1       4.675   2.002   1.178  1.00  0.00    -0.454 OA
ATOM     13  O   UNL     1       4.783   0.293   2.555  1.00  0.00    -0.454 OA
ATOM     14  C   UNL     1       3.866   1.264   2.058  1.00  0.00     0.468 C 
ENDBRANCH   5   6
ENDBRANCH   1   5
TORSDOF 3
ENDMDL
