@<TRIPOS>MOLECULE
/home/cewinharhar/GITHUB/reincatalyze/data/processed/docking_pred/2023-May-31-1603_sub9_nm5_bs15_s42_ex16_mel10_mts1000_k50_ec05_g099_lra3e-4_lrc9e-3/cb79d4b49cb2e7af28552c4e2a37cc688e9725fc_ligand_9.pdbqt
 14 15 0 0 0
SMALL
GASTEIGER

@<TRIPOS>ATOM
      1  C          5.5730    1.9010    1.3000 C.3     1  UNL1        0.0800
      2  C          5.1280    0.6970    2.0300 C.2     1  UNL1        0.1300
      3  C          6.0670   -0.4300    2.2010 C.3     1  UNL1        0.0870
      4  O          4.0070    0.6590    2.4730 O.2     1  UNL1       -0.3000
      5  C          5.3980    1.7320   -0.1950 C.3     1  UNL1        0.0430
      6  C          6.5290    0.9950   -0.7660 C.2     1  UNL1       -0.0440
      7  C          7.8210    1.4290   -0.5540 C.2     1  UNL1        0.0080
      8  C          6.3510   -0.1460   -1.5290 C.2     1  UNL1        0.0540
      9  C          8.9230    0.7590   -1.0790 C.2     1  UNL1        0.0510
     10  C          7.4330   -0.8370   -2.0680 C.2     1  UNL1        0.1660
     11  C          8.7130   -0.3780   -1.8370 C.2     1  UNL1        0.1650
     12  O          7.5600   -1.9830   -2.8530 O.2     1  UNL1       -0.4540
     13  O          9.5930   -1.2390   -2.4780 O.2     1  UNL1       -0.4540
     14  C          8.8680   -2.1030   -3.3490 C.3     1  UNL1        0.4680
@<TRIPOS>BOND
     1    14    12    1
     2    14    13    1
     3    12    10    1
     4    13    11    1
     5    10    11    2
     6    10     8    1
     7    11     9    1
     8     8     6    2
     9     9     7    2
    10     6     7    1
    11     6     5    1
    12     5     1    1
    13     1     2    1
    14     2     3    1
    15     2     4    2
