@<TRIPOS>MOLECULE
/home/cewinharhar/GITHUB/reincatalyze/data/processed/docking_pred/2023-May-31-1603_sub9_nm5_bs15_s42_ex16_mel10_mts1000_k50_ec05_g099_lra3e-4_lrc9e-3/cb79d4b49cb2e7af28552c4e2a37cc688e9725fc_ligand_9.pdbqt
 14 15 0 0 0
SMALL
GASTEIGER

@<TRIPOS>ATOM
      1  C          5.3000   -0.0980    1.9900 C.3     1  UNL1        0.0800
      2  C          4.4690    1.0990    1.7480 C.2     1  UNL1        0.1300
      3  C          4.9060    2.0890    0.7430 C.3     1  UNL1        0.0870
      4  O          3.4490    1.2430    2.3760 O.2     1  UNL1       -0.3000
      5  C          6.7560    0.1720    1.6720 C.3     1  UNL1        0.0430
      6  C          7.2460   -0.7720    0.6640 C.2     1  UNL1       -0.0440
      7  C          7.1440   -0.4730   -0.6790 C.2     1  UNL1        0.0080
      8  C          7.8210   -1.9820    1.0120 C.2     1  UNL1        0.0540
      9  C          7.5970   -1.3430   -1.6670 C.2     1  UNL1        0.0510
     10  C          8.2830   -2.8720    0.0450 C.2     1  UNL1        0.1660
     11  C          8.1660   -2.5440   -1.2890 C.2     1  UNL1        0.1650
     12  O          8.8890   -4.1270    0.0920 O.2     1  UNL1       -0.4540
     13  O          8.6970   -3.5910   -2.0300 O.2     1  UNL1       -0.4540
     14  C          8.9110   -4.7160   -1.1830 C.3     1  UNL1        0.4680
@<TRIPOS>BOND
     1    13    11    1
     2    13    14    1
     3     9    11    2
     4     9     7    1
     5    11    10    1
     6    14    12    1
     7     7     6    2
     8    10    12    1
     9    10     8    2
    10     6     8    1
    11     6     5    1
    12     3     2    1
    13     5     1    1
    14     2     1    1
    15     2     4    2
