@<TRIPOS>MOLECULE
/home/cewinharhar/GITHUB/reincatalyze/data/processed/docking_pred/2023-May-31-1603_sub9_nm5_bs15_s42_ex16_mel10_mts1000_k50_ec05_g099_lra3e-4_lrc9e-3/cf36f354a35629e8f67fe5763b2daf9f978d0e2b_ligand_9.pdbqt
 14 15 0 0 0
SMALL
GASTEIGER

@<TRIPOS>ATOM
      1  C          6.8250    0.8440    1.1600 C.3     1  UNL1        0.0800
      2  C          5.4100    1.1160    1.4840 C.2     1  UNL1        0.1300
      3  C          4.6820    2.1500    0.7210 C.3     1  UNL1        0.0870
      4  O          4.8780    0.4880    2.3660 O.2     1  UNL1       -0.3000
      5  C          7.0710    0.9210   -0.3320 C.3     1  UNL1        0.0430
      6  C          7.5440   -0.3690   -0.8430 C.2     1  UNL1       -0.0440
      7  C          7.6380   -0.5880   -2.2020 C.2     1  UNL1        0.0080
      8  C          7.9090   -1.4020    0.0020 C.2     1  UNL1        0.0540
      9  C          8.0810   -1.7990   -2.7270 C.2     1  UNL1        0.0510
     10  C          8.3570   -2.6240   -0.4940 C.2     1  UNL1        0.1660
     11  C          8.4390   -2.8120   -1.8580 C.2     1  UNL1        0.1650
     12  O          8.7820   -3.8140    0.0950 O.2     1  UNL1       -0.4540
     13  O          8.9070   -4.0990   -2.0800 O.2     1  UNL1       -0.4540
     14  C          8.8710   -4.8390   -0.8620 C.3     1  UNL1        0.4680
@<TRIPOS>BOND
     1     9     7    1
     2     9    11    2
     3     7     6    2
     4    13    11    1
     5    13    14    1
     6    11    10    1
     7    14    12    1
     8     6     5    1
     9     6     8    1
    10    10     8    2
    11    10    12    1
    12     5     1    1
    13     3     2    1
    14     1     2    1
    15     2     4    2
