@<TRIPOS>MOLECULE
/home/cewinharhar/GITHUB/reincatalyze/data/processed/docking_pred/2023-May-31-1603_sub9_nm5_bs15_s42_ex16_mel10_mts1000_k50_ec05_g099_lra3e-4_lrc9e-3/d0b377ce7413ba2d0a06352180e6db5bf746794c_ligand_9.pdbqt
 14 15 0 0 0
SMALL
GASTEIGER

@<TRIPOS>ATOM
      1  C          5.5990    1.8610    1.3240 C.3     1  UNL1        0.0800
      2  C          5.1380    0.6610    2.0520 C.2     1  UNL1        0.1300
      3  C          6.0690   -0.4690    2.2390 C.3     1  UNL1        0.0870
      4  O          4.0110    0.6300    2.4790 O.2     1  UNL1       -0.3000
      5  C          5.4130    1.7010   -0.1710 C.3     1  UNL1        0.0430
      6  C          6.5430    0.9720   -0.7550 C.2     1  UNL1       -0.0440
      7  C          7.8340    1.4180   -0.5630 C.2     1  UNL1        0.0080
      8  C          6.3630   -0.1740   -1.5100 C.2     1  UNL1        0.0540
      9  C          8.9340    0.7550   -1.1010 C.2     1  UNL1        0.0510
     10  C          7.4440   -0.8590   -2.0600 C.2     1  UNL1        0.1660
     11  C          8.7230   -0.3870   -1.8510 C.2     1  UNL1        0.1650
     12  O          7.5700   -2.0070   -2.8420 O.2     1  UNL1       -0.4540
     13  O          9.6010   -1.2430   -2.5000 O.2     1  UNL1       -0.4540
     14  C          8.8720   -2.1180   -3.3570 C.3     1  UNL1        0.4680
@<TRIPOS>BOND
     1    14    12    1
     2    14    13    1
     3    12    10    1
     4    13    11    1
     5    10    11    2
     6    10     8    1
     7    11     9    1
     8     8     6    2
     9     9     7    2
    10     6     7    1
    11     6     5    1
    12     5     1    1
    13     1     2    1
    14     2     3    1
    15     2     4    2
