@<TRIPOS>MOLECULE
/home/cewinharhar/GITHUB/reincatalyze/data/processed/docking_pred/2023-May-31-1603_sub9_nm5_bs15_s42_ex16_mel10_mts1000_k50_ec05_g099_lra3e-4_lrc9e-3/d0b377ce7413ba2d0a06352180e6db5bf746794c_ligand_9.pdbqt
 14 15 0 0 0
SMALL
GASTEIGER

@<TRIPOS>ATOM
      1  C          5.3870   -0.0830    1.8940 C.3     1  UNL1        0.0800
      2  C          4.6180    1.1610    1.6870 C.2     1  UNL1        0.1300
      3  C          5.0690    2.1240    0.6620 C.3     1  UNL1        0.0870
      4  O          3.6380    1.3640    2.3590 O.2     1  UNL1       -0.3000
      5  C          6.8600    0.1290    1.6140 C.3     1  UNL1        0.0430
      6  C          7.3350   -0.8230    0.6050 C.2     1  UNL1       -0.0440
      7  C          7.1970   -0.5410   -0.7380 C.2     1  UNL1        0.0080
      8  C          7.9300   -2.0230    0.9530 C.2     1  UNL1        0.0540
      9  C          7.6330   -1.4180   -1.7270 C.2     1  UNL1        0.0510
     10  C          8.3770   -2.9200   -0.0140 C.2     1  UNL1        0.1660
     11  C          8.2240   -2.6090   -1.3490 C.2     1  UNL1        0.1650
     12  O          8.9970   -4.1680    0.0320 O.2     1  UNL1       -0.4540
     13  O          8.7470   -3.6590   -2.0900 O.2     1  UNL1       -0.4540
     14  C          8.9930   -4.7720   -1.2350 C.3     1  UNL1        0.4680
@<TRIPOS>BOND
     1    13    11    1
     2    13    14    1
     3     9    11    2
     4     9     7    1
     5    11    10    1
     6    14    12    1
     7     7     6    2
     8    10    12    1
     9    10     8    2
    10     6     8    1
    11     6     5    1
    12     3     2    1
    13     5     1    1
    14     2     1    1
    15     2     4    2
