@<TRIPOS>MOLECULE
/home/cewinharhar/GITHUB/reincatalyze/data/processed/docking_pred/2023-May-31-1603_sub9_nm5_bs15_s42_ex16_mel10_mts1000_k50_ec05_g099_lra3e-4_lrc9e-3/d0b377ce7413ba2d0a06352180e6db5bf746794c_ligand_9.pdbqt
 14 15 0 0 0
SMALL
GASTEIGER

@<TRIPOS>ATOM
      1  C          6.6910    0.6970    1.2980 C.3     1  UNL1        0.0800
      2  C          5.2930    1.1590    1.4100 C.2     1  UNL1        0.1300
      3  C          4.7810    2.1500    0.4420 C.3     1  UNL1        0.0870
      4  O          4.5970    0.7170    2.2910 O.2     1  UNL1       -0.3000
      5  C          7.2280    0.9080   -0.1020 C.3     1  UNL1        0.0430
      6  C          7.6510   -0.3660   -0.6900 C.2     1  UNL1       -0.0440
      7  C          7.7030   -0.5180   -2.0600 C.2     1  UNL1        0.0080
      8  C          8.0070   -1.4510    0.0930 C.2     1  UNL1        0.0540
      9  C          8.0980   -1.7120   -2.6570 C.2     1  UNL1        0.0510
     10  C          8.4060   -2.6580   -0.4760 C.2     1  UNL1        0.1660
     11  C          8.4480   -2.7780   -1.8500 C.2     1  UNL1        0.1650
     12  O          8.8120   -3.8880    0.0410 O.2     1  UNL1       -0.4540
     13  O          8.8730   -4.0650   -2.1480 O.2     1  UNL1       -0.4540
     14  C          8.8470   -4.8640   -0.9690 C.3     1  UNL1        0.4680
@<TRIPOS>BOND
     1     9     7    1
     2     9    11    2
     3    13    11    1
     4    13    14    1
     5     7     6    2
     6    11    10    1
     7    14    12    1
     8     6     5    1
     9     6     8    1
    10    10    12    1
    11    10     8    2
    12     5     1    1
    13     3     2    1
    14     1     2    1
    15     2     4    2
