@<TRIPOS>MOLECULE
/home/cewinharhar/GITHUB/reincatalyze/data/processed/docking_pred/2023-May-31-1603_sub9_nm5_bs15_s42_ex16_mel10_mts1000_k50_ec05_g099_lra3e-4_lrc9e-3/d0b377ce7413ba2d0a06352180e6db5bf746794c_ligand_9.pdbqt
 14 15 0 0 0
SMALL
GASTEIGER

@<TRIPOS>ATOM
      1  C          8.2770    0.1860   -2.6300 C.3     1  UNL1        0.0800
      2  C          7.9870   -1.2580   -2.7360 C.2     1  UNL1        0.1300
      3  C          9.0930   -2.1960   -3.0170 C.3     1  UNL1        0.0870
      4  O          6.8530   -1.6430   -2.5900 O.2     1  UNL1       -0.3000
      5  C          8.8390    0.5350   -1.2680 C.3     1  UNL1        0.0430
      6  C          7.7970    0.4450   -0.2420 C.2     1  UNL1       -0.0440
      7  C          7.8340   -0.5580    0.7040 C.2     1  UNL1        0.0080
      8  C          6.7500    1.3480   -0.1810 C.2     1  UNL1        0.0540
      9  C          6.8630   -0.6790    1.6940 C.2     1  UNL1        0.0510
     10  C          5.7640    1.2530    0.7980 C.2     1  UNL1        0.1660
     11  C          5.8300    0.2380    1.7300 C.2     1  UNL1        0.1650
     12  O          4.6220    1.9950    1.1020 O.2     1  UNL1       -0.4540
     13  O          4.7400    0.3720    2.5780 O.2     1  UNL1       -0.4540
     14  C          3.8200    1.3140    2.0320 C.3     1  UNL1        0.4680
@<TRIPOS>BOND
     1     3     2    1
     2     2     1    1
     3     2     4    2
     4     1     5    1
     5     5     6    1
     6     6     8    2
     7     6     7    1
     8     8    10    1
     9     7     9    2
    10    10    12    1
    11    10    11    2
    12    12    14    1
    13     9    11    1
    14    11    13    1
    15    14    13    1
