@<TRIPOS>MOLECULE
/home/cewinharhar/GITHUB/reincatalyze/data/processed/docking_pred/2023-May-31-1603_sub9_nm5_bs15_s42_ex16_mel10_mts1000_k50_ec05_g099_lra3e-4_lrc9e-3/d0b377ce7413ba2d0a06352180e6db5bf746794c_ligand_9.pdbqt
 14 15 0 0 0
SMALL
GASTEIGER

@<TRIPOS>ATOM
      1  C          5.6990    1.2810   -0.2420 C.3     1  UNL1        0.0800
      2  C          5.0820    1.2380    1.0990 C.2     1  UNL1        0.1300
      3  C          5.3470    0.0820    1.9780 C.3     1  UNL1        0.0870
      4  O          4.3740    2.1500    1.4490 O.2     1  UNL1       -0.3000
      5  C          7.2030    1.1260   -0.1600 C.3     1  UNL1        0.0430
      6  C          7.6190   -0.1690   -0.7080 C.2     1  UNL1       -0.0440
      7  C          7.6650   -0.3650   -2.0730 C.2     1  UNL1        0.0080
      8  C          7.9740   -1.2290    0.1070 C.2     1  UNL1        0.0540
      9  C          8.0530   -1.5790   -2.6330 C.2     1  UNL1        0.0510
     10  C          8.3660   -2.4550   -0.4250 C.2     1  UNL1        0.1660
     11  C          8.4020   -2.6200   -1.7940 C.2     1  UNL1        0.1650
     12  O          8.7690   -3.6700    0.1300 O.2     1  UNL1       -0.4540
     13  O          8.8210   -3.9170   -2.0530 O.2     1  UNL1       -0.4540
     14  C          8.7970   -4.6780   -0.8480 C.3     1  UNL1        0.4680
@<TRIPOS>BOND
     1     9     7    1
     2     9    11    2
     3     7     6    2
     4    13    11    1
     5    13    14    1
     6    11    10    1
     7    14    12    1
     8     6     5    1
     9     6     8    1
    10    10     8    2
    11    10    12    1
    12     1     5    1
    13     1     2    1
    14     2     4    2
    15     2     3    1
