MODEL 1
REMARK VINA RESULT:      -7.5      0.000      0.000
REMARK SMILES CC(=O)CCc1ccc2c(c1)OCO2
REMARK SMILES IDX 4 1 2 2 1 3 3 4 5 5 6 6 7 7 11 8 8 9 10 10 9 11 12 12 14 13
REMARK SMILES IDX 13 14
REMARK H PARENT
REMARK Flexibility Score: inf
ROOT
ATOM      1  C   UNL     1       5.599   1.861   1.324  1.00  0.00     0.080 C 
ENDROOT
BRANCH   1   2
ATOM      2  C   UNL     1       5.138   0.661   2.052  1.00  0.00     0.130 C 
ATOM      3  C   UNL     1       6.069  -0.469   2.239  1.00  0.00     0.087 C 
ATOM      4  O   UNL     1       4.011   0.630   2.479  1.00  0.00    -0.300 OA
ENDBRANCH   1   2
BRANCH   1   5
ATOM      5  C   UNL     1       5.413   1.701  -0.171  1.00  0.00     0.043 C 
BRANCH   5   6
ATOM      6  C   UNL     1       6.543   0.972  -0.755  1.00  0.00    -0.044 A 
ATOM      7  C   UNL     1       7.834   1.418  -0.563  1.00  0.00     0.008 A 
ATOM      8  C   UNL     1       6.363  -0.174  -1.510  1.00  0.00     0.054 A 
ATOM      9  C   UNL     1       8.934   0.755  -1.101  1.00  0.00     0.051 A 
ATOM     10  C   UNL     1       7.444  -0.859  -2.060  1.00  0.00     0.166 A 
ATOM     11  C   UNL     1       8.723  -0.387  -1.851  1.00  0.00     0.165 A 
ATOM     12  O   UNL     1       7.570  -2.007  -2.842  1.00  0.00    -0.454 OA
ATOM     13  O   UNL     1       9.601  -1.243  -2.500  1.00  0.00    -0.454 OA
ATOM     14  C   UNL     1       8.872  -2.118  -3.357  1.00  0.00     0.468 C 
ENDBRANCH   5   6
ENDBRANCH   1   5
TORSDOF 3
ENDMDL
MODEL 2
REMARK VINA RESULT:      -7.3      1.983      2.388
REMARK SMILES CC(=O)CCc1ccc2c(c1)OCO2
REMARK SMILES IDX 4 1 2 2 1 3 3 4 5 5 6 6 7 7 11 8 8 9 10 10 9 11 12 12 14 13
REMARK SMILES IDX 13 14
REMARK H PARENT
REMARK Flexibility Score: inf
ROOT
ATOM      1  C   UNL     1       5.699   1.281  -0.242  1.00  0.00     0.080 C 
ENDROOT
BRANCH   1   2
ATOM      2  C   UNL     1       5.082   1.238   1.099  1.00  0.00     0.130 C 
ATOM      3  C   UNL     1       5.347   0.082   1.978  1.00  0.00     0.087 C 
ATOM      4  O   UNL     1       4.374   2.150   1.449  1.00  0.00    -0.300 OA
ENDBRANCH   1   2
BRANCH   1   5
ATOM      5  C   UNL     1       7.203   1.126  -0.160  1.00  0.00     0.043 C 
BRANCH   5   6
ATOM      6  C   UNL     1       7.619  -0.169  -0.708  1.00  0.00    -0.044 A 
ATOM      7  C   UNL     1       7.665  -0.365  -2.073  1.00  0.00     0.008 A 
ATOM      8  C   UNL     1       7.974  -1.229   0.107  1.00  0.00     0.054 A 
ATOM      9  C   UNL     1       8.053  -1.579  -2.633  1.00  0.00     0.051 A 
ATOM     10  C   UNL     1       8.366  -2.455  -0.425  1.00  0.00     0.166 A 
ATOM     11  C   UNL     1       8.402  -2.620  -1.794  1.00  0.00     0.165 A 
ATOM     12  O   UNL     1       8.769  -3.670   0.130  1.00  0.00    -0.454 OA
ATOM     13  O   UNL     1       8.821  -3.917  -2.053  1.00  0.00    -0.454 OA
ATOM     14  C   UNL     1       8.797  -4.678  -0.848  1.00  0.00     0.468 C 
ENDBRANCH   5   6
ENDBRANCH   1   5
TORSDOF 3
ENDMDL
MODEL 3
REMARK VINA RESULT:      -7.3      2.116      2.675
REMARK SMILES CC(=O)CCc1ccc2c(c1)OCO2
REMARK SMILES IDX 4 1 2 2 1 3 3 4 5 5 6 6 7 7 11 8 8 9 10 10 9 11 12 12 14 13
REMARK SMILES IDX 13 14
REMARK H PARENT
REMARK Flexibility Score: inf
ROOT
ATOM      1  C   UNL     1       5.387  -0.083   1.894  1.00  0.00     0.080 C 
ENDROOT
BRANCH   1   2
ATOM      2  C   UNL     1       4.618   1.161   1.687  1.00  0.00     0.130 C 
ATOM      3  C   UNL     1       5.069   2.124   0.662  1.00  0.00     0.087 C 
ATOM      4  O   UNL     1       3.638   1.364   2.359  1.00  0.00    -0.300 OA
ENDBRANCH   1   2
BRANCH   1   5
ATOM      5  C   UNL     1       6.860   0.129   1.614  1.00  0.00     0.043 C 
BRANCH   5   6
ATOM      6  C   UNL     1       7.335  -0.823   0.605  1.00  0.00    -0.044 A 
ATOM      7  C   UNL     1       7.197  -0.541  -0.738  1.00  0.00     0.008 A 
ATOM      8  C   UNL     1       7.930  -2.023   0.953  1.00  0.00     0.054 A 
ATOM      9  C   UNL     1       7.633  -1.418  -1.727  1.00  0.00     0.051 A 
ATOM     10  C   UNL     1       8.377  -2.920  -0.014  1.00  0.00     0.166 A 
ATOM     11  C   UNL     1       8.224  -2.609  -1.349  1.00  0.00     0.165 A 
ATOM     12  O   UNL     1       8.997  -4.168   0.032  1.00  0.00    -0.454 OA
ATOM     13  O   UNL     1       8.747  -3.659  -2.090  1.00  0.00    -0.454 OA
ATOM     14  C   UNL     1       8.993  -4.772  -1.235  1.00  0.00     0.468 C 
ENDBRANCH   5   6
ENDBRANCH   1   5
TORSDOF 3
ENDMDL
MODEL 4
REMARK VINA RESULT:      -7.2      2.015      2.566
REMARK SMILES CC(=O)CCc1ccc2c(c1)OCO2
REMARK SMILES IDX 4 1 2 2 1 3 3 4 5 5 6 6 7 7 11 8 8 9 10 10 9 11 12 12 14 13
REMARK SMILES IDX 13 14
REMARK H PARENT
REMARK Flexibility Score: inf
ROOT
ATOM      1  C   UNL     1       6.691   0.697   1.298  1.00  0.00     0.080 C 
ENDROOT
BRANCH   1   2
ATOM      2  C   UNL     1       5.293   1.159   1.410  1.00  0.00     0.130 C 
ATOM      3  C   UNL     1       4.781   2.150   0.442  1.00  0.00     0.087 C 
ATOM      4  O   UNL     1       4.597   0.717   2.291  1.00  0.00    -0.300 OA
ENDBRANCH   1   2
BRANCH   1   5
ATOM      5  C   UNL     1       7.228   0.908  -0.102  1.00  0.00     0.043 C 
BRANCH   5   6
ATOM      6  C   UNL     1       7.651  -0.366  -0.690  1.00  0.00    -0.044 A 
ATOM      7  C   UNL     1       7.703  -0.518  -2.060  1.00  0.00     0.008 A 
ATOM      8  C   UNL     1       8.007  -1.451   0.093  1.00  0.00     0.054 A 
ATOM      9  C   UNL     1       8.098  -1.712  -2.657  1.00  0.00     0.051 A 
ATOM     10  C   UNL     1       8.406  -2.658  -0.476  1.00  0.00     0.166 A 
ATOM     11  C   UNL     1       8.448  -2.778  -1.850  1.00  0.00     0.165 A 
ATOM     12  O   UNL     1       8.812  -3.888   0.041  1.00  0.00    -0.454 OA
ATOM     13  O   UNL     1       8.873  -4.065  -2.148  1.00  0.00    -0.454 OA
ATOM     14  C   UNL     1       8.847  -4.864  -0.969  1.00  0.00     0.468 C 
ENDBRANCH   5   6
ENDBRANCH   1   5
TORSDOF 3
ENDMDL
MODEL 5
REMARK VINA RESULT:      -7.0      1.209      5.175
REMARK SMILES CC(=O)CCc1ccc2c(c1)OCO2
REMARK SMILES IDX 4 1 2 2 1 3 3 4 5 5 6 6 7 7 11 8 8 9 10 10 9 11 12 12 14 13
REMARK SMILES IDX 13 14
REMARK H PARENT
REMARK Flexibility Score: inf
ROOT
ATOM      1  C   UNL     1       8.277   0.186  -2.630  1.00  0.00     0.080 C 
ENDROOT
BRANCH   1   2
ATOM      2  C   UNL     1       7.987  -1.258  -2.736  1.00  0.00     0.130 C 
ATOM      3  C   UNL     1       9.093  -2.196  -3.017  1.00  0.00     0.087 C 
ATOM      4  O   UNL     1       6.853  -1.643  -2.590  1.00  0.00    -0.300 OA
ENDBRANCH   1   2
BRANCH   1   5
ATOM      5  C   UNL     1       8.839   0.535  -1.268  1.00  0.00     0.043 C 
BRANCH   5   6
ATOM      6  C   UNL     1       7.797   0.445  -0.242  1.00  0.00    -0.044 A 
ATOM      7  C   UNL     1       7.834  -0.558   0.704  1.00  0.00     0.008 A 
ATOM      8  C   UNL     1       6.750   1.348  -0.181  1.00  0.00     0.054 A 
ATOM      9  C   UNL     1       6.863  -0.679   1.694  1.00  0.00     0.051 A 
ATOM     10  C   UNL     1       5.764   1.253   0.798  1.00  0.00     0.166 A 
ATOM     11  C   UNL     1       5.830   0.238   1.730  1.00  0.00     0.165 A 
ATOM     12  O   UNL     1       4.622   1.995   1.102  1.00  0.00    -0.454 OA
ATOM     13  O   UNL     1       4.740   0.372   2.578  1.00  0.00    -0.454 OA
ATOM     14  C   UNL     1       3.820   1.314   2.032  1.00  0.00     0.468 C 
ENDBRANCH   5   6
ENDBRANCH   1   5
TORSDOF 3
ENDMDL
