MODEL 1
REMARK VINA RESULT:      -7.5      0.000      0.000
REMARK SMILES CC(=O)CCc1ccc2c(c1)OCO2
REMARK SMILES IDX 4 1 2 2 1 3 3 4 5 5 6 6 7 7 11 8 8 9 10 10 9 11 12 12 14 13
REMARK SMILES IDX 13 14
REMARK H PARENT
REMARK Flexibility Score: inf
ROOT
ATOM      1  C   UNL     1       5.616   1.831   1.371  1.00  0.00     0.080 C 
ENDROOT
BRANCH   1   2
ATOM      2  C   UNL     1       5.145   0.620   2.073  1.00  0.00     0.130 C 
ATOM      3  C   UNL     1       6.068  -0.521   2.240  1.00  0.00     0.087 C 
ATOM      4  O   UNL     1       4.016   0.587   2.495  1.00  0.00    -0.300 OA
ENDBRANCH   1   2
BRANCH   1   5
ATOM      5  C   UNL     1       5.431   1.705  -0.127  1.00  0.00     0.043 C 
BRANCH   5   6
ATOM      6  C   UNL     1       6.553   0.977  -0.725  1.00  0.00    -0.044 A 
ATOM      7  C   UNL     1       7.847   1.423  -0.547  1.00  0.00     0.008 A 
ATOM      8  C   UNL     1       6.365  -0.167  -1.480  1.00  0.00     0.054 A 
ATOM      9  C   UNL     1       8.940   0.761  -1.099  1.00  0.00     0.051 A 
ATOM     10  C   UNL     1       7.440  -0.851  -2.045  1.00  0.00     0.166 A 
ATOM     11  C   UNL     1       8.721  -0.379  -1.848  1.00  0.00     0.165 A 
ATOM     12  O   UNL     1       7.556  -1.997  -2.830  1.00  0.00    -0.454 OA
ATOM     13  O   UNL     1       9.591  -1.234  -2.509  1.00  0.00    -0.454 OA
ATOM     14  C   UNL     1       8.853  -2.107  -3.360  1.00  0.00     0.468 C 
ENDBRANCH   5   6
ENDBRANCH   1   5
TORSDOF 3
ENDMDL
MODEL 2
REMARK VINA RESULT:      -7.4      2.069      2.641
REMARK SMILES CC(=O)CCc1ccc2c(c1)OCO2
REMARK SMILES IDX 4 1 2 2 1 3 3 4 5 5 6 6 7 7 11 8 8 9 10 10 9 11 12 12 14 13
REMARK SMILES IDX 13 14
REMARK H PARENT
REMARK Flexibility Score: inf
ROOT
ATOM      1  C   UNL     1       5.339  -0.055   1.976  1.00  0.00     0.080 C 
ENDROOT
BRANCH   1   2
ATOM      2  C   UNL     1       4.499   1.141   1.766  1.00  0.00     0.130 C 
ATOM      3  C   UNL     1       4.884   2.118   0.726  1.00  0.00     0.087 C 
ATOM      4  O   UNL     1       3.516   1.297   2.447  1.00  0.00    -0.300 OA
ENDBRANCH   1   2
BRANCH   1   5
ATOM      5  C   UNL     1       6.783   0.217   1.612  1.00  0.00     0.043 C 
BRANCH   5   6
ATOM      6  C   UNL     1       7.251  -0.742   0.608  1.00  0.00    -0.044 A 
ATOM      7  C   UNL     1       7.088  -0.478  -0.737  1.00  0.00     0.008 A 
ATOM      8  C   UNL     1       7.863  -1.932   0.961  1.00  0.00     0.054 A 
ATOM      9  C   UNL     1       7.517  -1.364  -1.722  1.00  0.00     0.051 A 
ATOM     10  C   UNL     1       8.303  -2.837  -0.002  1.00  0.00     0.166 A 
ATOM     11  C   UNL     1       8.126  -2.544  -1.339  1.00  0.00     0.165 A 
ATOM     12  O   UNL     1       8.936  -4.079   0.049  1.00  0.00    -0.454 OA
ATOM     13  O   UNL     1       8.646  -3.599  -2.075  1.00  0.00    -0.454 OA
ATOM     14  C   UNL     1       8.917  -4.699  -1.211  1.00  0.00     0.468 C 
ENDBRANCH   5   6
ENDBRANCH   1   5
TORSDOF 3
ENDMDL
MODEL 3
REMARK VINA RESULT:      -7.3      1.974      2.397
REMARK SMILES CC(=O)CCc1ccc2c(c1)OCO2
REMARK SMILES IDX 4 1 2 2 1 3 3 4 5 5 6 6 7 7 11 8 8 9 10 10 9 11 12 12 14 13
REMARK SMILES IDX 13 14
REMARK H PARENT
REMARK Flexibility Score: inf
ROOT
ATOM      1  C   UNL     1       5.688   1.279  -0.211  1.00  0.00     0.080 C 
ENDROOT
BRANCH   1   2
ATOM      2  C   UNL     1       5.060   1.247   1.125  1.00  0.00     0.130 C 
ATOM      3  C   UNL     1       5.369   0.128   2.039  1.00  0.00     0.087 C 
ATOM      4  O   UNL     1       4.309   2.135   1.444  1.00  0.00    -0.300 OA
ENDBRANCH   1   2
BRANCH   1   5
ATOM      5  C   UNL     1       7.189   1.101  -0.117  1.00  0.00     0.043 C 
BRANCH   5   6
ATOM      6  C   UNL     1       7.592  -0.188  -0.686  1.00  0.00    -0.044 A 
ATOM      7  C   UNL     1       7.564  -0.386  -2.051  1.00  0.00     0.008 A 
ATOM      8  C   UNL     1       8.008  -1.242   0.109  1.00  0.00     0.054 A 
ATOM      9  C   UNL     1       7.938  -1.595  -2.631  1.00  0.00     0.051 A 
ATOM     10  C   UNL     1       8.387  -2.463  -0.443  1.00  0.00     0.166 A 
ATOM     11  C   UNL     1       8.349  -2.629  -1.812  1.00  0.00     0.165 A 
ATOM     12  O   UNL     1       8.838  -3.670   0.089  1.00  0.00    -0.454 OA
ATOM     13  O   UNL     1       8.772  -3.921  -2.092  1.00  0.00    -0.454 OA
ATOM     14  C   UNL     1       8.826  -4.679  -0.887  1.00  0.00     0.468 C 
ENDBRANCH   5   6
ENDBRANCH   1   5
TORSDOF 3
ENDMDL
MODEL 4
REMARK VINA RESULT:      -7.1      1.220      1.382
REMARK SMILES CC(=O)CCc1ccc2c(c1)OCO2
REMARK SMILES IDX 4 1 2 2 1 3 3 4 5 5 6 6 7 7 11 8 8 9 10 10 9 11 12 12 14 13
REMARK SMILES IDX 13 14
REMARK H PARENT
REMARK Flexibility Score: inf
ROOT
ATOM      1  C   UNL     1       6.250   1.324   0.955  1.00  0.00     0.080 C 
ENDROOT
BRANCH   1   2
ATOM      2  C   UNL     1       5.568   0.484   1.959  1.00  0.00     0.130 C 
ATOM      3  C   UNL     1       6.274  -0.685   2.521  1.00  0.00     0.087 C 
ATOM      4  O   UNL     1       4.446   0.769   2.299  1.00  0.00    -0.300 OA
ENDBRANCH   1   2
BRANCH   1   5
ATOM      5  C   UNL     1       5.749   1.027  -0.442  1.00  0.00     0.043 C 
BRANCH   5   6
ATOM      6  C   UNL     1       6.696   0.166  -1.157  1.00  0.00    -0.044 A 
ATOM      7  C   UNL     1       7.352   0.632  -2.278  1.00  0.00     0.008 A 
ATOM      8  C   UNL     1       6.966  -1.127  -0.745  1.00  0.00     0.054 A 
ATOM      9  C   UNL     1       8.258  -0.153  -2.985  1.00  0.00     0.051 A 
ATOM     10  C   UNL     1       7.868  -1.936  -1.432  1.00  0.00     0.166 A 
ATOM     11  C   UNL     1       8.507  -1.441  -2.549  1.00  0.00     0.165 A 
ATOM     12  O   UNL     1       8.329  -3.241  -1.259  1.00  0.00    -0.454 OA
ATOM     13  O   UNL     1       9.340  -2.438  -3.036  1.00  0.00    -0.454 OA
ATOM     14  C   UNL     1       9.036  -3.673  -2.392  1.00  0.00     0.468 C 
ENDBRANCH   5   6
ENDBRANCH   1   5
TORSDOF 3
ENDMDL
MODEL 5
REMARK VINA RESULT:      -7.1      1.967      2.606
REMARK SMILES CC(=O)CCc1ccc2c(c1)OCO2
REMARK SMILES IDX 4 1 2 2 1 3 3 4 5 5 6 6 7 7 11 8 8 9 10 10 9 11 12 12 14 13
REMARK SMILES IDX 13 14
REMARK H PARENT
REMARK Flexibility Score: inf
ROOT
ATOM      1  C   UNL     1       6.778   0.666   0.867  1.00  0.00     0.080 C 
ENDROOT
BRANCH   1   2
ATOM      2  C   UNL     1       5.447   1.063   1.369  1.00  0.00     0.130 C 
ATOM      3  C   UNL     1       4.715   2.150   0.688  1.00  0.00     0.087 C 
ATOM      4  O   UNL     1       4.985   0.492   2.325  1.00  0.00    -0.300 OA
ENDBRANCH   1   2
BRANCH   1   5
ATOM      5  C   UNL     1       6.805   0.629  -0.647  1.00  0.00     0.043 C 
BRANCH   5   6
ATOM      6  C   UNL     1       7.446  -0.601  -1.120  1.00  0.00    -0.044 A 
ATOM      7  C   UNL     1       7.814  -0.730  -2.444  1.00  0.00     0.008 A 
ATOM      8  C   UNL     1       7.704  -1.665  -0.274  1.00  0.00     0.054 A 
ATOM      9  C   UNL     1       8.424  -1.882  -2.933  1.00  0.00     0.051 A 
ATOM     10  C   UNL     1       8.314  -2.829  -0.735  1.00  0.00     0.166 A 
ATOM     11  C   UNL     1       8.669  -2.928  -2.064  1.00  0.00     0.165 A 
ATOM     12  O   UNL     1       8.690  -4.031  -0.135  1.00  0.00    -0.454 OA
ATOM     13  O   UNL     1       9.250  -4.173  -2.255  1.00  0.00    -0.454 OA
ATOM     14  C   UNL     1       9.025  -4.988  -1.108  1.00  0.00     0.468 C 
ENDBRANCH   5   6
ENDBRANCH   1   5
TORSDOF 3
ENDMDL
