@<TRIPOS>MOLECULE
/home/cewinharhar/GITHUB/reincatalyze/data/processed/docking_pred/2023-May-31-1603_sub9_nm5_bs15_s42_ex16_mel10_mts1000_k50_ec05_g099_lra3e-4_lrc9e-3/d17de8b65df071edc80e577bc10846f04a34e0dd_ligand_9.pdbqt
 14 15 0 0 0
SMALL
GASTEIGER

@<TRIPOS>ATOM
      1  C          6.7780    0.6660    0.8670 C.3     1  UNL1        0.0800
      2  C          5.4470    1.0630    1.3690 C.2     1  UNL1        0.1300
      3  C          4.7150    2.1500    0.6880 C.3     1  UNL1        0.0870
      4  O          4.9850    0.4920    2.3250 O.2     1  UNL1       -0.3000
      5  C          6.8050    0.6290   -0.6470 C.3     1  UNL1        0.0430
      6  C          7.4460   -0.6010   -1.1200 C.2     1  UNL1       -0.0440
      7  C          7.8140   -0.7300   -2.4440 C.2     1  UNL1        0.0080
      8  C          7.7040   -1.6650   -0.2740 C.2     1  UNL1        0.0540
      9  C          8.4240   -1.8820   -2.9330 C.2     1  UNL1        0.0510
     10  C          8.3140   -2.8290   -0.7350 C.2     1  UNL1        0.1660
     11  C          8.6690   -2.9280   -2.0640 C.2     1  UNL1        0.1650
     12  O          8.6900   -4.0310   -0.1350 O.2     1  UNL1       -0.4540
     13  O          9.2500   -4.1730   -2.2550 O.2     1  UNL1       -0.4540
     14  C          9.0250   -4.9880   -1.1080 C.3     1  UNL1        0.4680
@<TRIPOS>BOND
     1     9     7    1
     2     9    11    2
     3     7     6    2
     4    13    11    1
     5    13    14    1
     6    11    10    1
     7     6     5    1
     8     6     8    1
     9    14    12    1
    10    10     8    2
    11    10    12    1
    12     5     1    1
    13     3     2    1
    14     1     2    1
    15     2     4    2
