@<TRIPOS>MOLECULE
/home/cewinharhar/GITHUB/reincatalyze/data/processed/docking_pred/2023-May-31-1603_sub9_nm5_bs15_s42_ex16_mel10_mts1000_k50_ec05_g099_lra3e-4_lrc9e-3/d18fc177cce43baae8a65556dd45e7572e61ad5e_ligand_9.pdbqt
 14 15 0 0 0
SMALL
GASTEIGER

@<TRIPOS>ATOM
      1  C          6.1070    1.4210    1.0550 C.3     1  UNL1        0.0800
      2  C          5.3930    0.4280    1.8830 C.2     1  UNL1        0.1300
      3  C          6.0410   -0.8670    2.1730 C.3     1  UNL1        0.0870
      4  O          4.2950    0.6950    2.3050 O.2     1  UNL1       -0.3000
      5  C          5.9340    1.1310   -0.4210 C.3     1  UNL1        0.0430
      6  C          7.0340    0.2980   -0.9150 C.2     1  UNL1       -0.0440
      7  C          6.8360   -0.5590   -1.9780 C.2     1  UNL1        0.0080
      8  C          8.2940    0.3350   -0.3440 C.2     1  UNL1        0.0540
      9  C          7.8540   -1.3680   -2.4760 C.2     1  UNL1        0.0510
     10  C          9.3320   -0.4620   -0.8210 C.2     1  UNL1        0.1660
     11  C          9.1020   -1.3080   -1.8850 C.2     1  UNL1        0.1650
     12  O         10.6680   -0.6350   -0.4590 O.2     1  UNL1       -0.4540
     13  O         10.2870   -1.9790   -2.1550 O.2     1  UNL1       -0.4540
     14  C         11.2110   -1.7650   -1.0920 C.3     1  UNL1        0.4680
@<TRIPOS>BOND
     1     9     7    1
     2     9    11    2
     3    13    11    1
     4    13    14    1
     5     7     6    2
     6    11    10    1
     7    14    12    1
     8     6     5    1
     9     6     8    1
    10    10    12    1
    11    10     8    2
    12     5     1    1
    13     1     2    1
    14     2     3    1
    15     2     4    2
