@<TRIPOS>MOLECULE
/home/cewinharhar/GITHUB/reincatalyze/data/processed/docking_pred/2023-May-31-1603_sub9_nm5_bs15_s42_ex16_mel10_mts1000_k50_ec05_g099_lra3e-4_lrc9e-3/d18fc177cce43baae8a65556dd45e7572e61ad5e_ligand_9.pdbqt
 14 15 0 0 0
SMALL
GASTEIGER

@<TRIPOS>ATOM
      1  C          5.8280    1.5950    0.9650 C.3     1  UNL1        0.0800
      2  C          5.3220    0.5690    1.8990 C.2     1  UNL1        0.1300
      3  C          6.1850   -0.5780    2.2470 C.3     1  UNL1        0.0870
      4  O          4.2140    0.6890    2.3590 O.2     1  UNL1       -0.3000
      5  C          5.7120    1.1320   -0.4730 C.3     1  UNL1        0.0430
      6  C          6.9290    0.4280   -0.8870 C.2     1  UNL1       -0.0440
      7  C          8.1650    1.0190   -0.7230 C.2     1  UNL1        0.0080
      8  C          6.8890   -0.8350   -1.4510 C.2     1  UNL1        0.0540
      9  C          9.3450    0.3850   -1.1040 C.2     1  UNL1        0.0510
     10  C          8.0520   -1.4940   -1.8420 C.2     1  UNL1        0.1660
     11  C          9.2730   -0.8770   -1.6640 C.2     1  UNL1        0.1650
     12  O          8.3170   -2.7350   -2.4200 O.2     1  UNL1       -0.4540
     13  O         10.2540   -1.7400   -2.1320 O.2     1  UNL1       -0.4540
     14  C          9.6480   -2.8040   -2.8610 C.3     1  UNL1        0.4680
@<TRIPOS>BOND
     1    14    12    1
     2    14    13    1
     3    12    10    1
     4    13    11    1
     5    10    11    2
     6    10     8    1
     7    11     9    1
     8     8     6    2
     9     9     7    2
    10     6     7    1
    11     6     5    1
    12     5     1    1
    13     1     2    1
    14     2     3    1
    15     2     4    2
