MODEL 1
REMARK VINA RESULT:      -8.1      0.000      0.000
REMARK SMILES CC(=O)CCc1ccc2c(c1)OCO2
REMARK SMILES IDX 4 1 2 2 1 3 3 4 5 5 6 6 7 7 11 8 8 9 10 10 9 11 12 12 14 13
REMARK SMILES IDX 13 14
REMARK H PARENT
REMARK Flexibility Score: inf
ROOT
ATOM      1  C   UNL     1       5.828   1.595   0.965  1.00  0.00     0.080 C 
ENDROOT
BRANCH   1   2
ATOM      2  C   UNL     1       5.322   0.569   1.899  1.00  0.00     0.130 C 
ATOM      3  C   UNL     1       6.185  -0.578   2.247  1.00  0.00     0.087 C 
ATOM      4  O   UNL     1       4.214   0.689   2.359  1.00  0.00    -0.300 OA
ENDBRANCH   1   2
BRANCH   1   5
ATOM      5  C   UNL     1       5.712   1.132  -0.473  1.00  0.00     0.043 C 
BRANCH   5   6
ATOM      6  C   UNL     1       6.929   0.428  -0.887  1.00  0.00    -0.044 A 
ATOM      7  C   UNL     1       8.165   1.019  -0.723  1.00  0.00     0.008 A 
ATOM      8  C   UNL     1       6.889  -0.835  -1.451  1.00  0.00     0.054 A 
ATOM      9  C   UNL     1       9.345   0.385  -1.104  1.00  0.00     0.051 A 
ATOM     10  C   UNL     1       8.052  -1.494  -1.842  1.00  0.00     0.166 A 
ATOM     11  C   UNL     1       9.273  -0.877  -1.664  1.00  0.00     0.165 A 
ATOM     12  O   UNL     1       8.317  -2.735  -2.420  1.00  0.00    -0.454 OA
ATOM     13  O   UNL     1      10.254  -1.740  -2.132  1.00  0.00    -0.454 OA
ATOM     14  C   UNL     1       9.648  -2.804  -2.861  1.00  0.00     0.468 C 
ENDBRANCH   5   6
ENDBRANCH   1   5
TORSDOF 3
ENDMDL
MODEL 2
REMARK VINA RESULT:      -7.8      1.061      1.817
REMARK SMILES CC(=O)CCc1ccc2c(c1)OCO2
REMARK SMILES IDX 4 1 2 2 1 3 3 4 5 5 6 6 7 7 11 8 8 9 10 10 9 11 12 12 14 13
REMARK SMILES IDX 13 14
REMARK H PARENT
REMARK Flexibility Score: inf
ROOT
ATOM      1  C   UNL     1       5.811   1.164  -0.261  1.00  0.00     0.080 C 
ENDROOT
BRANCH   1   2
ATOM      2  C   UNL     1       5.279   1.093   1.115  1.00  0.00     0.130 C 
ATOM      3  C   UNL     1       5.662  -0.043   1.977  1.00  0.00     0.087 C 
ATOM      4  O   UNL     1       4.543   1.965   1.506  1.00  0.00    -0.300 OA
ENDBRANCH   1   2
BRANCH   1   5
ATOM      5  C   UNL     1       7.320   1.289  -0.261  1.00  0.00     0.043 C 
BRANCH   5   6
ATOM      6  C   UNL     1       7.928   0.197  -1.027  1.00  0.00    -0.044 A 
ATOM      7  C   UNL     1       7.276  -0.332  -2.122  1.00  0.00     0.008 A 
ATOM      8  C   UNL     1       9.159  -0.338  -0.690  1.00  0.00     0.054 A 
ATOM      9  C   UNL     1       7.818  -1.370  -2.875  1.00  0.00     0.051 A 
ATOM     10  C   UNL     1       9.726  -1.376  -1.425  1.00  0.00     0.166 A 
ATOM     11  C   UNL     1       9.049  -1.884  -2.514  1.00  0.00     0.165 A 
ATOM     12  O   UNL     1      10.916  -2.097  -1.328  1.00  0.00    -0.454 OA
ATOM     13  O   UNL     1       9.826  -2.896  -3.060  1.00  0.00    -0.454 OA
ATOM     14  C   UNL     1      10.883  -3.226  -2.162  1.00  0.00     0.468 C 
ENDBRANCH   5   6
ENDBRANCH   1   5
TORSDOF 3
ENDMDL
MODEL 3
REMARK VINA RESULT:      -7.4      0.925      1.741
REMARK SMILES CC(=O)CCc1ccc2c(c1)OCO2
REMARK SMILES IDX 4 1 2 2 1 3 3 4 5 5 6 6 7 7 11 8 8 9 10 10 9 11 12 12 14 13
REMARK SMILES IDX 13 14
REMARK H PARENT
REMARK Flexibility Score: inf
ROOT
ATOM      1  C   UNL     1       6.107   1.421   1.055  1.00  0.00     0.080 C 
ENDROOT
BRANCH   1   2
ATOM      2  C   UNL     1       5.393   0.428   1.883  1.00  0.00     0.130 C 
ATOM      3  C   UNL     1       6.041  -0.867   2.173  1.00  0.00     0.087 C 
ATOM      4  O   UNL     1       4.295   0.695   2.305  1.00  0.00    -0.300 OA
ENDBRANCH   1   2
BRANCH   1   5
ATOM      5  C   UNL     1       5.934   1.131  -0.421  1.00  0.00     0.043 C 
BRANCH   5   6
ATOM      6  C   UNL     1       7.034   0.298  -0.915  1.00  0.00    -0.044 A 
ATOM      7  C   UNL     1       6.836  -0.559  -1.978  1.00  0.00     0.008 A 
ATOM      8  C   UNL     1       8.294   0.335  -0.344  1.00  0.00     0.054 A 
ATOM      9  C   UNL     1       7.854  -1.368  -2.476  1.00  0.00     0.051 A 
ATOM     10  C   UNL     1       9.332  -0.462  -0.821  1.00  0.00     0.166 A 
ATOM     11  C   UNL     1       9.102  -1.308  -1.885  1.00  0.00     0.165 A 
ATOM     12  O   UNL     1      10.668  -0.635  -0.459  1.00  0.00    -0.454 OA
ATOM     13  O   UNL     1      10.287  -1.979  -2.155  1.00  0.00    -0.454 OA
ATOM     14  C   UNL     1      11.211  -1.765  -1.092  1.00  0.00     0.468 C 
ENDBRANCH   5   6
ENDBRANCH   1   5
TORSDOF 3
ENDMDL
MODEL 4
REMARK VINA RESULT:      -7.3      1.930      2.415
REMARK SMILES CC(=O)CCc1ccc2c(c1)OCO2
REMARK SMILES IDX 4 1 2 2 1 3 3 4 5 5 6 6 7 7 11 8 8 9 10 10 9 11 12 12 14 13
REMARK SMILES IDX 13 14
REMARK H PARENT
REMARK Flexibility Score: inf
ROOT
ATOM      1  C   UNL     1       6.111  -0.184   1.753  1.00  0.00     0.080 C 
ENDROOT
BRANCH   1   2
ATOM      2  C   UNL     1       5.054   0.845   1.687  1.00  0.00     0.130 C 
ATOM      3  C   UNL     1       5.112   1.870   0.626  1.00  0.00     0.087 C 
ATOM      4  O   UNL     1       4.165   0.827   2.502  1.00  0.00    -0.300 OA
ENDBRANCH   1   2
BRANCH   1   5
ATOM      5  C   UNL     1       6.408  -0.755   0.382  1.00  0.00     0.043 C 
BRANCH   5   6
ATOM      6  C   UNL     1       7.841  -0.673   0.088  1.00  0.00    -0.044 A 
ATOM      7  C   UNL     1       8.336   0.357  -0.685  1.00  0.00     0.008 A 
ATOM      8  C   UNL     1       8.742  -1.609   0.566  1.00  0.00     0.054 A 
ATOM      9  C   UNL     1       9.690   0.470  -0.988  1.00  0.00     0.051 A 
ATOM     10  C   UNL     1      10.102  -1.522   0.280  1.00  0.00     0.166 A 
ATOM     11  C   UNL     1      10.565  -0.480  -0.496  1.00  0.00     0.165 A 
ATOM     12  O   UNL     1      11.215  -2.293   0.612  1.00  0.00    -0.454 OA
ATOM     13  O   UNL     1      11.939  -0.629  -0.626  1.00  0.00    -0.454 OA
ATOM     14  C   UNL     1      12.328  -1.917  -0.158  1.00  0.00     0.468 C 
ENDBRANCH   5   6
ENDBRANCH   1   5
TORSDOF 3
ENDMDL
MODEL 5
REMARK VINA RESULT:      -7.3      1.228      2.160
REMARK SMILES CC(=O)CCc1ccc2c(c1)OCO2
REMARK SMILES IDX 4 1 2 2 1 3 3 4 5 5 6 6 7 7 11 8 8 9 10 10 9 11 12 12 14 13
REMARK SMILES IDX 13 14
REMARK H PARENT
REMARK Flexibility Score: inf
ROOT
ATOM      1  C   UNL     1       6.366  -0.242   0.936  1.00  0.00     0.080 C 
ENDROOT
BRANCH   1   2
ATOM      2  C   UNL     1       5.362   0.729   1.415  1.00  0.00     0.130 C 
ATOM      3  C   UNL     1       5.057   1.916   0.590  1.00  0.00     0.087 C 
ATOM      4  O   UNL     1       4.812   0.534   2.470  1.00  0.00    -0.300 OA
ENDBRANCH   1   2
BRANCH   1   5
ATOM      5  C   UNL     1       7.503   0.453   0.216  1.00  0.00     0.043 C 
BRANCH   5   6
ATOM      6  C   UNL     1       8.163  -0.469  -0.714  1.00  0.00    -0.044 A 
ATOM      7  C   UNL     1       7.545  -0.830  -1.893  1.00  0.00     0.008 A 
ATOM      8  C   UNL     1       9.411  -1.005  -0.450  1.00  0.00     0.054 A 
ATOM      9  C   UNL     1       8.138  -1.703  -2.802  1.00  0.00     0.051 A 
ATOM     10  C   UNL     1      10.029  -1.880  -1.340  1.00  0.00     0.166 A 
ATOM     11  C   UNL     1       9.386  -2.222  -2.511  1.00  0.00     0.165 A 
ATOM     12  O   UNL     1      11.247  -2.559  -1.346  1.00  0.00    -0.454 OA
ATOM     13  O   UNL     1      10.209  -3.096  -3.207  1.00  0.00    -0.454 OA
ATOM     14  C   UNL     1      11.269  -3.531  -2.360  1.00  0.00     0.468 C 
ENDBRANCH   5   6
ENDBRANCH   1   5
TORSDOF 3
ENDMDL
