@<TRIPOS>MOLECULE
/home/cewinharhar/GITHUB/reincatalyze/data/processed/docking_pred/2023-May-31-1603_sub9_nm5_bs15_s42_ex16_mel10_mts1000_k50_ec05_g099_lra3e-4_lrc9e-3/d18fc177cce43baae8a65556dd45e7572e61ad5e_ligand_9.pdbqt
 14 15 0 0 0
SMALL
GASTEIGER

@<TRIPOS>ATOM
      1  C          6.1110   -0.1840    1.7530 C.3     1  UNL1        0.0800
      2  C          5.0540    0.8450    1.6870 C.2     1  UNL1        0.1300
      3  C          5.1120    1.8700    0.6260 C.3     1  UNL1        0.0870
      4  O          4.1650    0.8270    2.5020 O.2     1  UNL1       -0.3000
      5  C          6.4080   -0.7550    0.3820 C.3     1  UNL1        0.0430
      6  C          7.8410   -0.6730    0.0880 C.2     1  UNL1       -0.0440
      7  C          8.3360    0.3570   -0.6850 C.2     1  UNL1        0.0080
      8  C          8.7420   -1.6090    0.5660 C.2     1  UNL1        0.0540
      9  C          9.6900    0.4700   -0.9880 C.2     1  UNL1        0.0510
     10  C         10.1020   -1.5220    0.2800 C.2     1  UNL1        0.1660
     11  C         10.5650   -0.4800   -0.4960 C.2     1  UNL1        0.1650
     12  O         11.2150   -2.2930    0.6120 O.2     1  UNL1       -0.4540
     13  O         11.9390   -0.6290   -0.6260 O.2     1  UNL1       -0.4540
     14  C         12.3280   -1.9170   -0.1580 C.3     1  UNL1        0.4680
@<TRIPOS>BOND
     1     9     7    1
     2     9    11    2
     3     7     6    2
     4    13    11    1
     5    13    14    1
     6    11    10    1
     7    14    12    1
     8     6     5    1
     9     6     8    1
    10    10     8    2
    11    10    12    1
    12     5     1    1
    13     3     2    1
    14     2     1    1
    15     2     4    2
