@<TRIPOS>MOLECULE
/home/cewinharhar/GITHUB/reincatalyze/data/processed/docking_pred/2023-May-31-1603_sub9_nm5_bs15_s42_ex16_mel10_mts1000_k50_ec05_g099_lra3e-4_lrc9e-3/d18fc177cce43baae8a65556dd45e7572e61ad5e_ligand_9.pdbqt
 14 15 0 0 0
SMALL
GASTEIGER

@<TRIPOS>ATOM
      1  C          6.3660   -0.2420    0.9360 C.3     1  UNL1        0.0800
      2  C          5.3620    0.7290    1.4150 C.2     1  UNL1        0.1300
      3  C          5.0570    1.9160    0.5900 C.3     1  UNL1        0.0870
      4  O          4.8120    0.5340    2.4700 O.2     1  UNL1       -0.3000
      5  C          7.5030    0.4530    0.2160 C.3     1  UNL1        0.0430
      6  C          8.1630   -0.4690   -0.7140 C.2     1  UNL1       -0.0440
      7  C          7.5450   -0.8300   -1.8930 C.2     1  UNL1        0.0080
      8  C          9.4110   -1.0050   -0.4500 C.2     1  UNL1        0.0540
      9  C          8.1380   -1.7030   -2.8020 C.2     1  UNL1        0.0510
     10  C         10.0290   -1.8800   -1.3400 C.2     1  UNL1        0.1660
     11  C          9.3860   -2.2220   -2.5110 C.2     1  UNL1        0.1650
     12  O         11.2470   -2.5590   -1.3460 O.2     1  UNL1       -0.4540
     13  O         10.2090   -3.0960   -3.2070 O.2     1  UNL1       -0.4540
     14  C         11.2690   -3.5310   -2.3600 C.3     1  UNL1        0.4680
@<TRIPOS>BOND
     1    13    11    1
     2    13    14    1
     3     9    11    2
     4     9     7    1
     5    11    10    1
     6    14    12    1
     7     7     6    2
     8    12    10    1
     9    10     8    2
    10     6     8    1
    11     6     5    1
    12     5     1    1
    13     3     2    1
    14     1     2    1
    15     2     4    2
