@<TRIPOS>MOLECULE
/home/cewinharhar/GITHUB/reincatalyze/data/processed/docking_pred/2023-May-31-1603_sub9_nm5_bs15_s42_ex16_mel10_mts1000_k50_ec05_g099_lra3e-4_lrc9e-3/d18fc177cce43baae8a65556dd45e7572e61ad5e_ligand_9.pdbqt
 14 15 0 0 0
SMALL
GASTEIGER

@<TRIPOS>ATOM
      1  C          5.8110    1.1640   -0.2610 C.3     1  UNL1        0.0800
      2  C          5.2790    1.0930    1.1150 C.2     1  UNL1        0.1300
      3  C          5.6620   -0.0430    1.9770 C.3     1  UNL1        0.0870
      4  O          4.5430    1.9650    1.5060 O.2     1  UNL1       -0.3000
      5  C          7.3200    1.2890   -0.2610 C.3     1  UNL1        0.0430
      6  C          7.9280    0.1970   -1.0270 C.2     1  UNL1       -0.0440
      7  C          7.2760   -0.3320   -2.1220 C.2     1  UNL1        0.0080
      8  C          9.1590   -0.3380   -0.6900 C.2     1  UNL1        0.0540
      9  C          7.8180   -1.3700   -2.8750 C.2     1  UNL1        0.0510
     10  C          9.7260   -1.3760   -1.4250 C.2     1  UNL1        0.1660
     11  C          9.0490   -1.8840   -2.5140 C.2     1  UNL1        0.1650
     12  O         10.9160   -2.0970   -1.3280 O.2     1  UNL1       -0.4540
     13  O          9.8260   -2.8960   -3.0600 O.2     1  UNL1       -0.4540
     14  C         10.8830   -3.2260   -2.1620 C.3     1  UNL1        0.4680
@<TRIPOS>BOND
     1    13    11    1
     2    13    14    1
     3     9    11    2
     4     9     7    1
     5    11    10    1
     6    14    12    1
     7     7     6    2
     8    10    12    1
     9    10     8    2
    10     6     8    1
    11     6     5    1
    12     1     5    1
    13     1     2    1
    14     2     4    2
    15     2     3    1
