@<TRIPOS>MOLECULE
/home/cewinharhar/GITHUB/reincatalyze/data/processed/docking_pred/2023-May-31-1603_sub9_nm5_bs15_s42_ex16_mel10_mts1000_k50_ec05_g099_lra3e-4_lrc9e-3/d27e6afc186b75c76b7fe435f4b9560b42cd14a2_ligand_9.pdbqt
 14 15 0 0 0
SMALL
GASTEIGER

@<TRIPOS>ATOM
      1  C          5.8440    0.1520    1.2070 C.3     1  UNL1        0.0800
      2  C          5.0400    1.3670    0.9700 C.2     1  UNL1        0.1300
      3  C          5.2170    2.1140   -0.2920 C.3     1  UNL1        0.0870
      4  O          4.2550    1.7260    1.8120 O.2     1  UNL1       -0.3000
      5  C          7.0890    0.1400    0.3440 C.3     1  UNL1        0.0430
      6  C          8.2700    0.4890    1.1390 C.2     1  UNL1       -0.0440
      7  C          8.2200    1.5320    2.0400 C.2     1  UNL1        0.0080
      8  C          9.4630   -0.2020    1.0210 C.2     1  UNL1        0.0540
      9  C          9.3190    1.8960    2.8140 C.2     1  UNL1        0.0510
     10  C         10.5800    0.1380    1.7810 C.2     1  UNL1        0.1660
     11  C         10.4970    1.1870    2.6730 C.2     1  UNL1        0.1650
     12  O         11.8780   -0.3610    1.8760 O.2     1  UNL1       -0.4540
     13  O         11.7330    1.3120    3.2930 O.2     1  UNL1       -0.4540
     14  C         12.6960    0.5180    2.6060 C.3     1  UNL1        0.4680
@<TRIPOS>BOND
     1     3     2    1
     2     5     6    1
     3     5     1    1
     4     2     1    1
     5     2     4    2
     6     8     6    2
     7     8    10    1
     8     6     7    1
     9    10    12    1
    10    10    11    2
    11    12    14    1
    12     7     9    2
    13    14    13    1
    14    11     9    1
    15    11    13    1
