@<TRIPOS>MOLECULE
/home/cewinharhar/GITHUB/reincatalyze/data/processed/docking_pred/2023-May-31-1603_sub9_nm5_bs15_s42_ex16_mel10_mts1000_k50_ec05_g099_lra3e-4_lrc9e-3/d27e6afc186b75c76b7fe435f4b9560b42cd14a2_ligand_9.pdbqt
 14 15 0 0 0
SMALL
GASTEIGER

@<TRIPOS>ATOM
      1  C          5.5790    1.8480    1.3590 C.3     1  UNL1        0.0800
      2  C          5.0720    0.6490    2.0570 C.2     1  UNL1        0.1300
      3  C          5.9600   -0.5210    2.2170 C.3     1  UNL1        0.0870
      4  O          3.9440    0.6500    2.4840 O.2     1  UNL1       -0.3000
      5  C          5.4080    1.7220   -0.1410 C.3     1  UNL1        0.0430
      6  C          6.5350    0.9920   -0.7280 C.2     1  UNL1       -0.0440
      7  C          7.8290    1.4240   -0.5220 C.2     1  UNL1        0.0080
      8  C          6.3510   -0.1420   -1.5000 C.2     1  UNL1        0.0540
      9  C          8.9260    0.7600   -1.0620 C.2     1  UNL1        0.0510
     10  C          7.4290   -0.8280   -2.0530 C.2     1  UNL1        0.1660
     11  C          8.7110   -0.3700   -1.8290 C.2     1  UNL1        0.1650
     12  O          7.5500   -1.9660   -2.8500 O.2     1  UNL1       -0.4540
     13  O          9.5850   -1.2240   -2.4840 O.2     1  UNL1       -0.4540
     14  C          8.8550   -2.0810   -3.3580 C.3     1  UNL1        0.4680
@<TRIPOS>BOND
     1    14    12    1
     2    14    13    1
     3    12    10    1
     4    13    11    1
     5    10    11    2
     6    10     8    1
     7    11     9    1
     8     8     6    2
     9     9     7    2
    10     6     7    1
    11     6     5    1
    12     5     1    1
    13     1     2    1
    14     2     3    1
    15     2     4    2
