MODEL 1
REMARK VINA RESULT:      -7.2      0.000      0.000
REMARK SMILES CC(=O)CCc1ccc2c(c1)OCO2
REMARK SMILES IDX 4 1 2 2 1 3 3 4 5 5 6 6 7 7 11 8 8 9 10 10 9 11 12 12 14 13
REMARK SMILES IDX 13 14
REMARK H PARENT
REMARK Flexibility Score: inf
ROOT
ATOM      1  C   UNL     1       5.844   0.152   1.207  1.00  0.00     0.080 C 
ENDROOT
BRANCH   1   2
ATOM      2  C   UNL     1       5.040   1.367   0.970  1.00  0.00     0.130 C 
ATOM      3  C   UNL     1       5.217   2.114  -0.292  1.00  0.00     0.087 C 
ATOM      4  O   UNL     1       4.255   1.726   1.812  1.00  0.00    -0.300 OA
ENDBRANCH   1   2
BRANCH   1   5
ATOM      5  C   UNL     1       7.089   0.140   0.344  1.00  0.00     0.043 C 
BRANCH   5   6
ATOM      6  C   UNL     1       8.270   0.489   1.139  1.00  0.00    -0.044 A 
ATOM      7  C   UNL     1       8.220   1.532   2.040  1.00  0.00     0.008 A 
ATOM      8  C   UNL     1       9.463  -0.202   1.021  1.00  0.00     0.054 A 
ATOM      9  C   UNL     1       9.319   1.896   2.814  1.00  0.00     0.051 A 
ATOM     10  C   UNL     1      10.580   0.138   1.781  1.00  0.00     0.166 A 
ATOM     11  C   UNL     1      10.497   1.187   2.673  1.00  0.00     0.165 A 
ATOM     12  O   UNL     1      11.878  -0.361   1.876  1.00  0.00    -0.454 OA
ATOM     13  O   UNL     1      11.733   1.312   3.293  1.00  0.00    -0.454 OA
ATOM     14  C   UNL     1      12.696   0.518   2.606  1.00  0.00     0.468 C 
ENDBRANCH   5   6
ENDBRANCH   1   5
TORSDOF 3
ENDMDL
MODEL 2
REMARK VINA RESULT:      -7.2      2.643      5.423
REMARK SMILES CC(=O)CCc1ccc2c(c1)OCO2
REMARK SMILES IDX 4 1 2 2 1 3 3 4 5 5 6 6 7 7 11 8 8 9 10 10 9 11 12 12 14 13
REMARK SMILES IDX 13 14
REMARK H PARENT
REMARK Flexibility Score: inf
ROOT
ATOM      1  C   UNL     1       9.740   1.179   2.653  1.00  0.00     0.080 C 
ENDROOT
BRANCH   1   2
ATOM      2  C   UNL     1      11.196   0.936   2.659  1.00  0.00     0.130 C 
ATOM      3  C   UNL     1      12.061   1.768   3.520  1.00  0.00     0.087 C 
ATOM      4  O   UNL     1      11.650   0.064   1.961  1.00  0.00    -0.300 OA
ENDBRANCH   1   2
BRANCH   1   5
ATOM      5  C   UNL     1       9.320   1.969   1.430  1.00  0.00     0.043 C 
BRANCH   5   6
ATOM      6  C   UNL     1       8.607   1.109   0.481  1.00  0.00    -0.044 A 
ATOM      7  C   UNL     1       7.246   0.922   0.597  1.00  0.00     0.008 A 
ATOM      8  C   UNL     1       9.260   0.459  -0.552  1.00  0.00     0.054 A 
ATOM      9  C   UNL     1       6.532   0.112  -0.283  1.00  0.00     0.051 A 
ATOM     10  C   UNL     1       8.573  -0.356  -1.448  1.00  0.00     0.166 A 
ATOM     11  C   UNL     1       7.212  -0.523  -1.305  1.00  0.00     0.165 A 
ATOM     12  O   UNL     1       8.950  -1.116  -2.555  1.00  0.00    -0.454 OA
ATOM     13  O   UNL     1       6.782  -1.373  -2.314  1.00  0.00    -0.454 OA
ATOM     14  C   UNL     1       7.908  -1.972  -2.948  1.00  0.00     0.468 C 
ENDBRANCH   5   6
ENDBRANCH   1   5
TORSDOF 3
ENDMDL
MODEL 3
REMARK VINA RESULT:      -7.1      3.390      4.378
REMARK SMILES CC(=O)CCc1ccc2c(c1)OCO2
REMARK SMILES IDX 4 1 2 2 1 3 3 4 5 5 6 6 7 7 11 8 8 9 10 10 9 11 12 12 14 13
REMARK SMILES IDX 13 14
REMARK H PARENT
REMARK Flexibility Score: inf
ROOT
ATOM      1  C   UNL     1       5.579   1.848   1.359  1.00  0.00     0.080 C 
ENDROOT
BRANCH   1   2
ATOM      2  C   UNL     1       5.072   0.649   2.057  1.00  0.00     0.130 C 
ATOM      3  C   UNL     1       5.960  -0.521   2.217  1.00  0.00     0.087 C 
ATOM      4  O   UNL     1       3.944   0.650   2.484  1.00  0.00    -0.300 OA
ENDBRANCH   1   2
BRANCH   1   5
ATOM      5  C   UNL     1       5.408   1.722  -0.141  1.00  0.00     0.043 C 
BRANCH   5   6
ATOM      6  C   UNL     1       6.535   0.992  -0.728  1.00  0.00    -0.044 A 
ATOM      7  C   UNL     1       7.829   1.424  -0.522  1.00  0.00     0.008 A 
ATOM      8  C   UNL     1       6.351  -0.142  -1.500  1.00  0.00     0.054 A 
ATOM      9  C   UNL     1       8.926   0.760  -1.062  1.00  0.00     0.051 A 
ATOM     10  C   UNL     1       7.429  -0.828  -2.053  1.00  0.00     0.166 A 
ATOM     11  C   UNL     1       8.711  -0.370  -1.829  1.00  0.00     0.165 A 
ATOM     12  O   UNL     1       7.550  -1.966  -2.850  1.00  0.00    -0.454 OA
ATOM     13  O   UNL     1       9.585  -1.224  -2.484  1.00  0.00    -0.454 OA
ATOM     14  C   UNL     1       8.855  -2.081  -3.358  1.00  0.00     0.468 C 
ENDBRANCH   5   6
ENDBRANCH   1   5
TORSDOF 3
ENDMDL
MODEL 4
REMARK VINA RESULT:      -7.0      1.079      1.638
REMARK SMILES CC(=O)CCc1ccc2c(c1)OCO2
REMARK SMILES IDX 4 1 2 2 1 3 3 4 5 5 6 6 7 7 11 8 8 9 10 10 9 11 12 12 14 13
REMARK SMILES IDX 13 14
REMARK H PARENT
REMARK Flexibility Score: inf
ROOT
ATOM      1  C   UNL     1       5.725   0.268   1.455  1.00  0.00     0.080 C 
ENDROOT
BRANCH   1   2
ATOM      2  C   UNL     1       4.941   1.453   1.051  1.00  0.00     0.130 C 
ATOM      3  C   UNL     1       5.230   2.101  -0.244  1.00  0.00     0.087 C 
ATOM      4  O   UNL     1       4.081   1.868   1.788  1.00  0.00    -0.300 OA
ENDBRANCH   1   2
BRANCH   1   5
ATOM      5  C   UNL     1       6.712  -0.130   0.378  1.00  0.00     0.043 C 
BRANCH   5   6
ATOM      6  C   UNL     1       8.055   0.361   0.703  1.00  0.00    -0.044 A 
ATOM      7  C   UNL     1       8.994   0.532  -0.292  1.00  0.00     0.008 A 
ATOM      8  C   UNL     1       8.428   0.666   2.001  1.00  0.00     0.054 A 
ATOM      9  C   UNL     1      10.280   0.995  -0.025  1.00  0.00     0.051 A 
ATOM     10  C   UNL     1       9.707   1.131   2.299  1.00  0.00     0.166 A 
ATOM     11  C   UNL     1      10.624   1.291   1.281  1.00  0.00     0.165 A 
ATOM     12  O   UNL     1      10.352   1.510   3.475  1.00  0.00    -0.454 OA
ATOM     13  O   UNL     1      11.802   1.760   1.844  1.00  0.00    -0.454 OA
ATOM     14  C   UNL     1      11.734   1.646   3.263  1.00  0.00     0.468 C 
ENDBRANCH   5   6
ENDBRANCH   1   5
TORSDOF 3
ENDMDL
MODEL 5
REMARK VINA RESULT:      -7.0      1.324      2.240
REMARK SMILES CC(=O)CCc1ccc2c(c1)OCO2
REMARK SMILES IDX 4 1 2 2 1 3 3 4 5 5 6 6 7 7 11 8 8 9 10 10 9 11 12 12 14 13
REMARK SMILES IDX 13 14
REMARK H PARENT
REMARK Flexibility Score: inf
ROOT
ATOM      1  C   UNL     1       5.736   0.754   0.305  1.00  0.00     0.080 C 
ENDROOT
BRANCH   1   2
ATOM      2  C   UNL     1       5.476   0.162   1.633  1.00  0.00     0.130 C 
ATOM      3  C   UNL     1       6.245  -1.027   2.054  1.00  0.00     0.087 C 
ATOM      4  O   UNL     1       4.641   0.660   2.346  1.00  0.00    -0.300 OA
ENDBRANCH   1   2
BRANCH   1   5
ATOM      5  C   UNL     1       6.467   2.076   0.428  1.00  0.00     0.043 C 
BRANCH   5   6
ATOM      6  C   UNL     1       7.885   1.854   0.727  1.00  0.00    -0.044 A 
ATOM      7  C   UNL     1       8.727   1.336  -0.235  1.00  0.00     0.008 A 
ATOM      8  C   UNL     1       8.427   2.150   1.966  1.00  0.00     0.054 A 
ATOM      9  C   UNL     1      10.079   1.109   0.010  1.00  0.00     0.051 A 
ATOM     10  C   UNL     1       9.775   1.935   2.239  1.00  0.00     0.166 A 
ATOM     11  C   UNL     1      10.591   1.415   1.256  1.00  0.00     0.165 A 
ATOM     12  O   UNL     1      10.582   2.131   3.360  1.00  0.00    -0.454 OA
ATOM     13  O   UNL     1      11.869   1.302   1.785  1.00  0.00    -0.454 OA
ATOM     14  C   UNL     1      11.824   1.496   3.196  1.00  0.00     0.468 C 
ENDBRANCH   5   6
ENDBRANCH   1   5
TORSDOF 3
ENDMDL
