@<TRIPOS>MOLECULE
/home/cewinharhar/GITHUB/reincatalyze/data/processed/docking_pred/2023-May-31-1603_sub9_nm5_bs15_s42_ex16_mel10_mts1000_k50_ec05_g099_lra3e-4_lrc9e-3/d29de17412cd01c0ee6022e9d720ef028927a1a9_ligand_9.pdbqt
 14 15 0 0 0
SMALL
GASTEIGER

@<TRIPOS>ATOM
      1  C          8.3110    0.2100   -2.5930 C.3     1  UNL1        0.0800
      2  C          7.9680   -1.2210   -2.7180 C.2     1  UNL1        0.1300
      3  C          9.0370   -2.1950   -3.0200 C.3     1  UNL1        0.0870
      4  O          6.8220   -1.5660   -2.5710 O.2     1  UNL1       -0.3000
      5  C          8.8640    0.5240   -1.2180 C.3     1  UNL1        0.0430
      6  C          7.8070    0.4380   -0.2060 C.2     1  UNL1       -0.0440
      7  C          7.8210   -0.5740    0.7310 C.2     1  UNL1        0.0080
      8  C          6.7690    1.3510   -0.1520 C.2     1  UNL1        0.0540
      9  C          6.8350   -0.6920    1.7080 C.2     1  UNL1        0.0510
     10  C          5.7690    1.2600    0.8140 C.2     1  UNL1        0.1660
     11  C          5.8110    0.2360    1.7380 C.2     1  UNL1        0.1650
     12  O          4.6320    2.0110    1.1090 O.2     1  UNL1       -0.4540
     13  O          4.7120    0.3760    2.5730 O.2     1  UNL1       -0.4540
     14  C          3.8100    1.3320    2.0230 C.3     1  UNL1        0.4680
@<TRIPOS>BOND
     1     3     2    1
     2     2     1    1
     3     2     4    2
     4     1     5    1
     5     5     6    1
     6     6     8    2
     7     6     7    1
     8     8    10    1
     9     7     9    2
    10    10    12    1
    11    10    11    2
    12    12    14    1
    13     9    11    1
    14    11    13    1
    15    14    13    1
