MODEL 1
REMARK VINA RESULT:      -7.5      0.000      0.000
REMARK SMILES CC(=O)CCc1ccc2c(c1)OCO2
REMARK SMILES IDX 4 1 2 2 1 3 3 4 5 5 6 6 7 7 11 8 8 9 10 10 9 11 12 12 14 13
REMARK SMILES IDX 13 14
REMARK H PARENT
REMARK Flexibility Score: inf
ROOT
ATOM      1  C   UNL     1       5.673   1.782   1.424  1.00  0.00     0.080 C 
ENDROOT
BRANCH   1   2
ATOM      2  C   UNL     1       5.166   0.565   2.088  1.00  0.00     0.130 C 
ATOM      3  C   UNL     1       6.055  -0.607   2.225  1.00  0.00     0.087 C 
ATOM      4  O   UNL     1       4.034   0.552   2.506  1.00  0.00    -0.300 OA
ENDBRANCH   1   2
BRANCH   1   5
ATOM      5  C   UNL     1       5.488   1.706  -0.077  1.00  0.00     0.043 C 
BRANCH   5   6
ATOM      6  C   UNL     1       6.597   0.974  -0.697  1.00  0.00    -0.044 A 
ATOM      7  C   UNL     1       7.894   1.422  -0.551  1.00  0.00     0.008 A 
ATOM      8  C   UNL     1       6.392  -0.174  -1.440  1.00  0.00     0.054 A 
ATOM      9  C   UNL     1       8.975   0.757  -1.124  1.00  0.00     0.051 A 
ATOM     10  C   UNL     1       7.453  -0.861  -2.025  1.00  0.00     0.166 A 
ATOM     11  C   UNL     1       8.739  -0.388  -1.862  1.00  0.00     0.165 A 
ATOM     12  O   UNL     1       7.553  -2.012  -2.806  1.00  0.00    -0.454 OA
ATOM     13  O   UNL     1       9.594  -1.247  -2.537  1.00  0.00    -0.454 OA
ATOM     14  C   UNL     1       8.836  -2.125  -3.365  1.00  0.00     0.468 C 
ENDBRANCH   5   6
ENDBRANCH   1   5
TORSDOF 3
ENDMDL
MODEL 2
REMARK VINA RESULT:      -7.4      1.973      2.399
REMARK SMILES CC(=O)CCc1ccc2c(c1)OCO2
REMARK SMILES IDX 4 1 2 2 1 3 3 4 5 5 6 6 7 7 11 8 8 9 10 10 9 11 12 12 14 13
REMARK SMILES IDX 13 14
REMARK H PARENT
REMARK Flexibility Score: inf
ROOT
ATOM      1  C   UNL     1       5.699   1.178  -0.239  1.00  0.00     0.080 C 
ENDROOT
BRANCH   1   2
ATOM      2  C   UNL     1       5.128   1.194   1.123  1.00  0.00     0.130 C 
ATOM      3  C   UNL     1       5.359   0.040   2.015  1.00  0.00     0.087 C 
ATOM      4  O   UNL     1       4.484   2.150   1.478  1.00  0.00    -0.300 OA
ENDBRANCH   1   2
BRANCH   1   5
ATOM      5  C   UNL     1       7.209   1.060  -0.199  1.00  0.00     0.043 C 
BRANCH   5   6
ATOM      6  C   UNL     1       7.639  -0.227  -0.753  1.00  0.00    -0.044 A 
ATOM      7  C   UNL     1       7.726  -0.405  -2.118  1.00  0.00     0.008 A 
ATOM      8  C   UNL     1       7.969  -1.299   0.058  1.00  0.00     0.054 A 
ATOM      9  C   UNL     1       8.129  -1.612  -2.683  1.00  0.00     0.051 A 
ATOM     10  C   UNL     1       8.377  -2.518  -0.478  1.00  0.00     0.166 A 
ATOM     11  C   UNL     1       8.453  -2.664  -1.848  1.00  0.00     0.165 A 
ATOM     12  O   UNL     1       8.762  -3.741   0.071  1.00  0.00    -0.454 OA
ATOM     13  O   UNL     1       8.878  -3.958  -2.111  1.00  0.00    -0.454 OA
ATOM     14  C   UNL     1       8.817  -4.735  -0.919  1.00  0.00     0.468 C 
ENDBRANCH   5   6
ENDBRANCH   1   5
TORSDOF 3
ENDMDL
MODEL 3
REMARK VINA RESULT:      -7.4      2.073      2.644
REMARK SMILES CC(=O)CCc1ccc2c(c1)OCO2
REMARK SMILES IDX 4 1 2 2 1 3 3 4 5 5 6 6 7 7 11 8 8 9 10 10 9 11 12 12 14 13
REMARK SMILES IDX 13 14
REMARK H PARENT
REMARK Flexibility Score: inf
ROOT
ATOM      1  C   UNL     1       5.371  -0.033   1.979  1.00  0.00     0.080 C 
ENDROOT
BRANCH   1   2
ATOM      2  C   UNL     1       4.537   1.165   1.754  1.00  0.00     0.130 C 
ATOM      3  C   UNL     1       4.914   2.116   0.689  1.00  0.00     0.087 C 
ATOM      4  O   UNL     1       3.565   1.342   2.445  1.00  0.00    -0.300 OA
ENDBRANCH   1   2
BRANCH   1   5
ATOM      5  C   UNL     1       6.817   0.228   1.611  1.00  0.00     0.043 C 
BRANCH   5   6
ATOM      6  C   UNL     1       7.277  -0.740   0.611  1.00  0.00    -0.044 A 
ATOM      7  C   UNL     1       7.093  -0.494  -0.733  1.00  0.00     0.008 A 
ATOM      8  C   UNL     1       7.903  -1.921   0.970  1.00  0.00     0.054 A 
ATOM      9  C   UNL     1       7.514  -1.388  -1.714  1.00  0.00     0.051 A 
ATOM     10  C   UNL     1       8.336  -2.834   0.011  1.00  0.00     0.166 A 
ATOM     11  C   UNL     1       8.137  -2.559  -1.326  1.00  0.00     0.165 A 
ATOM     12  O   UNL     1       8.979  -4.071   0.069  1.00  0.00    -0.454 OA
ATOM     13  O   UNL     1       8.654  -3.619  -2.057  1.00  0.00    -0.454 OA
ATOM     14  C   UNL     1       8.946  -4.706  -1.183  1.00  0.00     0.468 C 
ENDBRANCH   5   6
ENDBRANCH   1   5
TORSDOF 3
ENDMDL
MODEL 4
REMARK VINA RESULT:      -7.1      1.932      2.567
REMARK SMILES CC(=O)CCc1ccc2c(c1)OCO2
REMARK SMILES IDX 4 1 2 2 1 3 3 4 5 5 6 6 7 7 11 8 8 9 10 10 9 11 12 12 14 13
REMARK SMILES IDX 13 14
REMARK H PARENT
REMARK Flexibility Score: inf
ROOT
ATOM      1  C   UNL     1       6.805   0.842   0.861  1.00  0.00     0.080 C 
ENDROOT
BRANCH   1   2
ATOM      2  C   UNL     1       5.437   1.133   1.335  1.00  0.00     0.130 C 
ATOM      3  C   UNL     1       4.631   2.150   0.631  1.00  0.00     0.087 C 
ATOM      4  O   UNL     1       5.006   0.533   2.289  1.00  0.00    -0.300 OA
ENDBRANCH   1   2
BRANCH   1   5
ATOM      5  C   UNL     1       6.863   0.797  -0.652  1.00  0.00     0.043 C 
BRANCH   5   6
ATOM      6  C   UNL     1       7.452  -0.466  -1.107  1.00  0.00    -0.044 A 
ATOM      7  C   UNL     1       7.742  -0.658  -2.442  1.00  0.00     0.008 A 
ATOM      8  C   UNL     1       7.735  -1.499  -0.232  1.00  0.00     0.054 A 
ATOM      9  C   UNL     1       8.300  -1.842  -2.915  1.00  0.00     0.051 A 
ATOM     10  C   UNL     1       8.294  -2.695  -0.675  1.00  0.00     0.166 A 
ATOM     11  C   UNL     1       8.572  -2.857  -2.017  1.00  0.00     0.165 A 
ATOM     12  O   UNL     1       8.678  -3.880  -0.047  1.00  0.00    -0.454 OA
ATOM     13  O   UNL     1       9.116  -4.122  -2.186  1.00  0.00    -0.454 OA
ATOM     14  C   UNL     1       8.939  -4.883  -0.994  1.00  0.00     0.468 C 
ENDBRANCH   5   6
ENDBRANCH   1   5
TORSDOF 3
ENDMDL
MODEL 5
REMARK VINA RESULT:      -7.0      1.182      5.191
REMARK SMILES CC(=O)CCc1ccc2c(c1)OCO2
REMARK SMILES IDX 4 1 2 2 1 3 3 4 5 5 6 6 7 7 11 8 8 9 10 10 9 11 12 12 14 13
REMARK SMILES IDX 13 14
REMARK H PARENT
REMARK Flexibility Score: inf
ROOT
ATOM      1  C   UNL     1       8.312   0.189  -2.526  1.00  0.00     0.080 C 
ENDROOT
BRANCH   1   2
ATOM      2  C   UNL     1       7.997  -1.242  -2.708  1.00  0.00     0.130 C 
ATOM      3  C   UNL     1       9.088  -2.184  -3.029  1.00  0.00     0.087 C 
ATOM      4  O   UNL     1       6.855  -1.612  -2.590  1.00  0.00    -0.300 OA
ENDBRANCH   1   2
BRANCH   1   5
ATOM      5  C   UNL     1       8.855   0.460  -1.139  1.00  0.00     0.043 C 
BRANCH   5   6
ATOM      6  C   UNL     1       7.781   0.395  -0.143  1.00  0.00    -0.044 A 
ATOM      7  C   UNL     1       7.770  -0.607   0.804  1.00  0.00     0.008 A 
ATOM      8  C   UNL     1       6.753   1.320  -0.114  1.00  0.00     0.054 A 
ATOM      9  C   UNL     1       6.768  -0.705   1.766  1.00  0.00     0.051 A 
ATOM     10  C   UNL     1       5.737   1.248   0.836  1.00  0.00     0.166 A 
ATOM     11  C   UNL     1       5.753   0.234   1.770  1.00  0.00     0.165 A 
ATOM     12  O   UNL     1       4.603   2.015   1.105  1.00  0.00    -0.454 OA
ATOM     13  O   UNL     1       4.643   0.393   2.586  1.00  0.00    -0.454 OA
ATOM     14  C   UNL     1       3.760   1.353   2.012  1.00  0.00     0.468 C 
ENDBRANCH   5   6
ENDBRANCH   1   5
TORSDOF 3
ENDMDL
