@<TRIPOS>MOLECULE
/home/cewinharhar/GITHUB/reincatalyze/data/processed/docking_pred/2023-May-31-1603_sub9_nm5_bs15_s42_ex16_mel10_mts1000_k50_ec05_g099_lra3e-4_lrc9e-3/d32515ef85c53a65d829162c3cbbbf13c46f52f9_ligand_9.pdbqt
 14 15 0 0 0
SMALL
GASTEIGER

@<TRIPOS>ATOM
      1  C          6.8050    0.8420    0.8610 C.3     1  UNL1        0.0800
      2  C          5.4370    1.1330    1.3350 C.2     1  UNL1        0.1300
      3  C          4.6310    2.1500    0.6310 C.3     1  UNL1        0.0870
      4  O          5.0060    0.5330    2.2890 O.2     1  UNL1       -0.3000
      5  C          6.8630    0.7970   -0.6520 C.3     1  UNL1        0.0430
      6  C          7.4520   -0.4660   -1.1070 C.2     1  UNL1       -0.0440
      7  C          7.7420   -0.6580   -2.4420 C.2     1  UNL1        0.0080
      8  C          7.7350   -1.4990   -0.2320 C.2     1  UNL1        0.0540
      9  C          8.3000   -1.8420   -2.9150 C.2     1  UNL1        0.0510
     10  C          8.2940   -2.6950   -0.6750 C.2     1  UNL1        0.1660
     11  C          8.5720   -2.8570   -2.0170 C.2     1  UNL1        0.1650
     12  O          8.6780   -3.8800   -0.0470 O.2     1  UNL1       -0.4540
     13  O          9.1160   -4.1220   -2.1860 O.2     1  UNL1       -0.4540
     14  C          8.9390   -4.8830   -0.9940 C.3     1  UNL1        0.4680
@<TRIPOS>BOND
     1     9     7    1
     2     9    11    2
     3     7     6    2
     4    13    11    1
     5    13    14    1
     6    11    10    1
     7     6     5    1
     8     6     8    1
     9    14    12    1
    10    10     8    2
    11    10    12    1
    12     5     1    1
    13     3     2    1
    14     1     2    1
    15     2     4    2
