@<TRIPOS>MOLECULE
/home/cewinharhar/GITHUB/reincatalyze/data/processed/docking_pred/2023-May-31-1603_sub9_nm5_bs15_s42_ex16_mel10_mts1000_k50_ec05_g099_lra3e-4_lrc9e-3/d32515ef85c53a65d829162c3cbbbf13c46f52f9_ligand_9.pdbqt
 14 15 0 0 0
SMALL
GASTEIGER

@<TRIPOS>ATOM
      1  C          5.3710   -0.0330    1.9790 C.3     1  UNL1        0.0800
      2  C          4.5370    1.1650    1.7540 C.2     1  UNL1        0.1300
      3  C          4.9140    2.1160    0.6890 C.3     1  UNL1        0.0870
      4  O          3.5650    1.3420    2.4450 O.2     1  UNL1       -0.3000
      5  C          6.8170    0.2280    1.6110 C.3     1  UNL1        0.0430
      6  C          7.2770   -0.7400    0.6110 C.2     1  UNL1       -0.0440
      7  C          7.0930   -0.4940   -0.7330 C.2     1  UNL1        0.0080
      8  C          7.9030   -1.9210    0.9700 C.2     1  UNL1        0.0540
      9  C          7.5140   -1.3880   -1.7140 C.2     1  UNL1        0.0510
     10  C          8.3360   -2.8340    0.0110 C.2     1  UNL1        0.1660
     11  C          8.1370   -2.5590   -1.3260 C.2     1  UNL1        0.1650
     12  O          8.9790   -4.0710    0.0690 O.2     1  UNL1       -0.4540
     13  O          8.6540   -3.6190   -2.0570 O.2     1  UNL1       -0.4540
     14  C          8.9460   -4.7060   -1.1830 C.3     1  UNL1        0.4680
@<TRIPOS>BOND
     1    13    11    1
     2    13    14    1
     3     9    11    2
     4     9     7    1
     5    11    10    1
     6    14    12    1
     7     7     6    2
     8    10    12    1
     9    10     8    2
    10     6     8    1
    11     6     5    1
    12     3     2    1
    13     5     1    1
    14     2     1    1
    15     2     4    2
