@<TRIPOS>MOLECULE
/home/cewinharhar/GITHUB/reincatalyze/data/processed/docking_pred/2023-May-31-1603_sub9_nm5_bs15_s42_ex16_mel10_mts1000_k50_ec05_g099_lra3e-4_lrc9e-3/d32515ef85c53a65d829162c3cbbbf13c46f52f9_ligand_9.pdbqt
 14 15 0 0 0
SMALL
GASTEIGER

@<TRIPOS>ATOM
      1  C          8.3120    0.1890   -2.5260 C.3     1  UNL1        0.0800
      2  C          7.9970   -1.2420   -2.7080 C.2     1  UNL1        0.1300
      3  C          9.0880   -2.1840   -3.0290 C.3     1  UNL1        0.0870
      4  O          6.8550   -1.6120   -2.5900 O.2     1  UNL1       -0.3000
      5  C          8.8550    0.4600   -1.1390 C.3     1  UNL1        0.0430
      6  C          7.7810    0.3950   -0.1430 C.2     1  UNL1       -0.0440
      7  C          7.7700   -0.6070    0.8040 C.2     1  UNL1        0.0080
      8  C          6.7530    1.3200   -0.1140 C.2     1  UNL1        0.0540
      9  C          6.7680   -0.7050    1.7660 C.2     1  UNL1        0.0510
     10  C          5.7370    1.2480    0.8360 C.2     1  UNL1        0.1660
     11  C          5.7530    0.2340    1.7700 C.2     1  UNL1        0.1650
     12  O          4.6030    2.0150    1.1050 O.2     1  UNL1       -0.4540
     13  O          4.6430    0.3930    2.5860 O.2     1  UNL1       -0.4540
     14  C          3.7600    1.3530    2.0120 C.3     1  UNL1        0.4680
@<TRIPOS>BOND
     1     3     2    1
     2     2     4    2
     3     2     1    1
     4     1     5    1
     5     5     6    1
     6     6     8    2
     7     6     7    1
     8     8    10    1
     9     7     9    2
    10    10    12    1
    11    10    11    2
    12    12    14    1
    13     9    11    1
    14    11    13    1
    15    14    13    1
