@<TRIPOS>MOLECULE
/home/cewinharhar/GITHUB/reincatalyze/data/processed/docking_pred/2023-May-31-1603_sub9_nm5_bs15_s42_ex16_mel10_mts1000_k50_ec05_g099_lra3e-4_lrc9e-3/d32515ef85c53a65d829162c3cbbbf13c46f52f9_ligand_9.pdbqt
 14 15 0 0 0
SMALL
GASTEIGER

@<TRIPOS>ATOM
      1  C          5.6730    1.7820    1.4240 C.3     1  UNL1        0.0800
      2  C          5.1660    0.5650    2.0880 C.2     1  UNL1        0.1300
      3  C          6.0550   -0.6070    2.2250 C.3     1  UNL1        0.0870
      4  O          4.0340    0.5520    2.5060 O.2     1  UNL1       -0.3000
      5  C          5.4880    1.7060   -0.0770 C.3     1  UNL1        0.0430
      6  C          6.5970    0.9740   -0.6970 C.2     1  UNL1       -0.0440
      7  C          7.8940    1.4220   -0.5510 C.2     1  UNL1        0.0080
      8  C          6.3920   -0.1740   -1.4400 C.2     1  UNL1        0.0540
      9  C          8.9750    0.7570   -1.1240 C.2     1  UNL1        0.0510
     10  C          7.4530   -0.8610   -2.0250 C.2     1  UNL1        0.1660
     11  C          8.7390   -0.3880   -1.8620 C.2     1  UNL1        0.1650
     12  O          7.5530   -2.0120   -2.8060 O.2     1  UNL1       -0.4540
     13  O          9.5940   -1.2470   -2.5370 O.2     1  UNL1       -0.4540
     14  C          8.8360   -2.1250   -3.3650 C.3     1  UNL1        0.4680
@<TRIPOS>BOND
     1    14    12    1
     2    14    13    1
     3    12    10    1
     4    13    11    1
     5    10    11    2
     6    10     8    1
     7    11     9    1
     8     8     6    2
     9     9     7    2
    10     6     7    1
    11     6     5    1
    12     5     1    1
    13     1     2    1
    14     2     3    1
    15     2     4    2
