@<TRIPOS>MOLECULE
/home/cewinharhar/GITHUB/reincatalyze/data/processed/docking_pred/2023-May-31-1603_sub9_nm5_bs15_s42_ex16_mel10_mts1000_k50_ec05_g099_lra3e-4_lrc9e-3/d32515ef85c53a65d829162c3cbbbf13c46f52f9_ligand_9.pdbqt
 14 15 0 0 0
SMALL
GASTEIGER

@<TRIPOS>ATOM
      1  C          5.6990    1.1780   -0.2390 C.3     1  UNL1        0.0800
      2  C          5.1280    1.1940    1.1230 C.2     1  UNL1        0.1300
      3  C          5.3590    0.0400    2.0150 C.3     1  UNL1        0.0870
      4  O          4.4840    2.1500    1.4780 O.2     1  UNL1       -0.3000
      5  C          7.2090    1.0600   -0.1990 C.3     1  UNL1        0.0430
      6  C          7.6390   -0.2270   -0.7530 C.2     1  UNL1       -0.0440
      7  C          7.7260   -0.4050   -2.1180 C.2     1  UNL1        0.0080
      8  C          7.9690   -1.2990    0.0580 C.2     1  UNL1        0.0540
      9  C          8.1290   -1.6120   -2.6830 C.2     1  UNL1        0.0510
     10  C          8.3770   -2.5180   -0.4780 C.2     1  UNL1        0.1660
     11  C          8.4530   -2.6640   -1.8480 C.2     1  UNL1        0.1650
     12  O          8.7620   -3.7410    0.0710 O.2     1  UNL1       -0.4540
     13  O          8.8780   -3.9580   -2.1110 O.2     1  UNL1       -0.4540
     14  C          8.8170   -4.7350   -0.9190 C.3     1  UNL1        0.4680
@<TRIPOS>BOND
     1     9     7    1
     2     9    11    2
     3     7     6    2
     4    13    11    1
     5    13    14    1
     6    11    10    1
     7    14    12    1
     8     6     5    1
     9     6     8    1
    10    10     8    2
    11    10    12    1
    12     1     5    1
    13     1     2    1
    14     2     4    2
    15     2     3    1
