@<TRIPOS>MOLECULE
/home/cewinharhar/GITHUB/reincatalyze/data/processed/docking_pred/2023-May-31-1603_sub9_nm5_bs15_s42_ex16_mel10_mts1000_k50_ec05_g099_lra3e-4_lrc9e-3/d3a7bace4d7284fd134c29c8ba069397c7215f06_ligand_9.pdbqt
 14 15 0 0 0
SMALL
GASTEIGER

@<TRIPOS>ATOM
      1  C          5.6460    1.8270    1.3870 C.3     1  UNL1        0.0800
      2  C          5.1510    0.6180    2.0750 C.2     1  UNL1        0.1300
      3  C          6.0630   -0.5290    2.2620 C.3     1  UNL1        0.0870
      4  O          4.0120    0.5910    2.4690 O.2     1  UNL1       -0.3000
      5  C          5.4580    1.7220   -0.1120 C.3     1  UNL1        0.0430
      6  C          6.5690    0.9850   -0.7200 C.2     1  UNL1       -0.0440
      7  C          7.8680    1.4220   -0.5570 C.2     1  UNL1        0.0080
      8  C          6.3650   -0.1600   -1.4710 C.2     1  UNL1        0.0540
      9  C          8.9510    0.7510   -1.1190 C.2     1  UNL1        0.0510
     10  C          7.4290   -0.8520   -2.0450 C.2     1  UNL1        0.1660
     11  C          8.7150   -0.3890   -1.8640 C.2     1  UNL1        0.1650
     12  O          7.5290   -2.0010   -2.8290 O.2     1  UNL1       -0.4540
     13  O          9.5730   -1.2520   -2.5320 O.2     1  UNL1       -0.4540
     14  C          8.8190   -2.1220   -3.3720 C.3     1  UNL1        0.4680
@<TRIPOS>BOND
     1    14    12    1
     2    14    13    1
     3    12    10    1
     4    13    11    1
     5    10    11    2
     6    10     8    1
     7    11     9    1
     8     8     6    2
     9     9     7    2
    10     6     7    1
    11     6     5    1
    12     5     1    1
    13     1     2    1
    14     2     3    1
    15     2     4    2
