MODEL 1
REMARK VINA RESULT:      -7.5      0.000      0.000
REMARK SMILES CC(=O)CCc1ccc2c(c1)OCO2
REMARK SMILES IDX 4 1 2 2 1 3 3 4 5 5 6 6 7 7 11 8 8 9 10 10 9 11 12 12 14 13
REMARK SMILES IDX 13 14
REMARK H PARENT
REMARK Flexibility Score: inf
ROOT
ATOM      1  C   UNL     1       5.646   1.827   1.387  1.00  0.00     0.080 C 
ENDROOT
BRANCH   1   2
ATOM      2  C   UNL     1       5.151   0.618   2.075  1.00  0.00     0.130 C 
ATOM      3  C   UNL     1       6.063  -0.529   2.262  1.00  0.00     0.087 C 
ATOM      4  O   UNL     1       4.012   0.591   2.469  1.00  0.00    -0.300 OA
ENDBRANCH   1   2
BRANCH   1   5
ATOM      5  C   UNL     1       5.458   1.722  -0.112  1.00  0.00     0.043 C 
BRANCH   5   6
ATOM      6  C   UNL     1       6.569   0.985  -0.720  1.00  0.00    -0.044 A 
ATOM      7  C   UNL     1       7.868   1.422  -0.557  1.00  0.00     0.008 A 
ATOM      8  C   UNL     1       6.365  -0.160  -1.471  1.00  0.00     0.054 A 
ATOM      9  C   UNL     1       8.951   0.751  -1.119  1.00  0.00     0.051 A 
ATOM     10  C   UNL     1       7.429  -0.852  -2.045  1.00  0.00     0.166 A 
ATOM     11  C   UNL     1       8.715  -0.389  -1.864  1.00  0.00     0.165 A 
ATOM     12  O   UNL     1       7.529  -2.001  -2.829  1.00  0.00    -0.454 OA
ATOM     13  O   UNL     1       9.573  -1.252  -2.532  1.00  0.00    -0.454 OA
ATOM     14  C   UNL     1       8.819  -2.122  -3.372  1.00  0.00     0.468 C 
ENDBRANCH   5   6
ENDBRANCH   1   5
TORSDOF 3
ENDMDL
MODEL 2
REMARK VINA RESULT:      -7.3      2.136      2.682
REMARK SMILES CC(=O)CCc1ccc2c(c1)OCO2
REMARK SMILES IDX 4 1 2 2 1 3 3 4 5 5 6 6 7 7 11 8 8 9 10 10 9 11 12 12 14 13
REMARK SMILES IDX 13 14
REMARK H PARENT
REMARK Flexibility Score: inf
ROOT
ATOM      1  C   UNL     1       5.380  -0.097   1.837  1.00  0.00     0.080 C 
ENDROOT
BRANCH   1   2
ATOM      2  C   UNL     1       4.596   1.133   1.603  1.00  0.00     0.130 C 
ATOM      3  C   UNL     1       5.010   2.058   0.529  1.00  0.00     0.087 C 
ATOM      4  O   UNL     1       3.634   1.357   2.295  1.00  0.00    -0.300 OA
ENDBRANCH   1   2
BRANCH   1   5
ATOM      5  C   UNL     1       6.851   0.127   1.552  1.00  0.00     0.043 C 
BRANCH   5   6
ATOM      6  C   UNL     1       7.335  -0.834   0.557  1.00  0.00    -0.044 A 
ATOM      7  C   UNL     1       7.213  -0.563  -0.790  1.00  0.00     0.008 A 
ATOM      8  C   UNL     1       7.922  -2.033   0.922  1.00  0.00     0.054 A 
ATOM      9  C   UNL     1       7.659  -1.450  -1.767  1.00  0.00     0.051 A 
ATOM     10  C   UNL     1       8.378  -2.939  -0.033  1.00  0.00     0.166 A 
ATOM     11  C   UNL     1       8.242  -2.639  -1.372  1.00  0.00     0.165 A 
ATOM     12  O   UNL     1       8.994  -4.189   0.031  1.00  0.00    -0.454 OA
ATOM     13  O   UNL     1       8.770  -3.697  -2.098  1.00  0.00    -0.454 OA
ATOM     14  C   UNL     1       9.003  -4.804  -1.231  1.00  0.00     0.468 C 
ENDBRANCH   5   6
ENDBRANCH   1   5
TORSDOF 3
ENDMDL
MODEL 3
REMARK VINA RESULT:      -7.3      1.861      2.289
REMARK SMILES CC(=O)CCc1ccc2c(c1)OCO2
REMARK SMILES IDX 4 1 2 2 1 3 3 4 5 5 6 6 7 7 11 8 8 9 10 10 9 11 12 12 14 13
REMARK SMILES IDX 13 14
REMARK H PARENT
REMARK Flexibility Score: inf
ROOT
ATOM      1  C   UNL     1       5.668   1.359  -0.313  1.00  0.00     0.080 C 
ENDROOT
BRANCH   1   2
ATOM      2  C   UNL     1       4.988   1.259   0.994  1.00  0.00     0.130 C 
ATOM      3  C   UNL     1       5.229   0.075   1.842  1.00  0.00     0.087 C 
ATOM      4  O   UNL     1       4.249   2.147   1.341  1.00  0.00    -0.300 OA
ENDBRANCH   1   2
BRANCH   1   5
ATOM      5  C   UNL     1       7.164   1.166  -0.170  1.00  0.00     0.043 C 
BRANCH   5   6
ATOM      6  C   UNL     1       7.581  -0.095  -0.789  1.00  0.00    -0.044 A 
ATOM      7  C   UNL     1       7.610  -0.221  -2.162  1.00  0.00     0.008 A 
ATOM      8  C   UNL     1       7.957  -1.193  -0.034  1.00  0.00     0.054 A 
ATOM      9  C   UNL     1       7.999  -1.402  -2.789  1.00  0.00     0.051 A 
ATOM     10  C   UNL     1       8.351  -2.387  -0.633  1.00  0.00     0.166 A 
ATOM     11  C   UNL     1       8.369  -2.481  -2.009  1.00  0.00     0.165 A 
ATOM     12  O   UNL     1       8.772  -3.624  -0.147  1.00  0.00    -0.454 OA
ATOM     13  O   UNL     1       8.794  -3.760  -2.339  1.00  0.00    -0.454 OA
ATOM     14  C   UNL     1       8.793  -4.581  -1.175  1.00  0.00     0.468 C 
ENDBRANCH   5   6
ENDBRANCH   1   5
TORSDOF 3
ENDMDL
MODEL 4
REMARK VINA RESULT:      -7.1      1.213      5.125
REMARK SMILES CC(=O)CCc1ccc2c(c1)OCO2
REMARK SMILES IDX 4 1 2 2 1 3 3 4 5 5 6 6 7 7 11 8 8 9 10 10 9 11 12 12 14 13
REMARK SMILES IDX 13 14
REMARK H PARENT
REMARK Flexibility Score: inf
ROOT
ATOM      1  C   UNL     1       8.165   0.136  -2.731  1.00  0.00     0.080 C 
ENDROOT
BRANCH   1   2
ATOM      2  C   UNL     1       7.875  -1.311  -2.717  1.00  0.00     0.130 C 
ATOM      3  C   UNL     1       8.979  -2.270  -2.925  1.00  0.00     0.087 C 
ATOM      4  O   UNL     1       6.741  -1.682  -2.537  1.00  0.00    -0.300 OA
ENDBRANCH   1   2
BRANCH   1   5
ATOM      5  C   UNL     1       8.750   0.591  -1.409  1.00  0.00     0.043 C 
BRANCH   5   6
ATOM      6  C   UNL     1       7.753   0.485  -0.341  1.00  0.00    -0.044 A 
ATOM      7  C   UNL     1       7.871  -0.491   0.628  1.00  0.00     0.008 A 
ATOM      8  C   UNL     1       6.670   1.343  -0.262  1.00  0.00     0.054 A 
ATOM      9  C   UNL     1       6.944  -0.626   1.659  1.00  0.00     0.051 A 
ATOM     10  C   UNL     1       5.728   1.232   0.758  1.00  0.00     0.166 A 
ATOM     11  C   UNL     1       5.874   0.247   1.711  1.00  0.00     0.165 A 
ATOM     12  O   UNL     1       4.567   1.932   1.087  1.00  0.00    -0.454 OA
ATOM     13  O   UNL     1       4.813   0.357   2.599  1.00  0.00    -0.454 OA
ATOM     14  C   UNL     1       3.832   1.243   2.066  1.00  0.00     0.468 C 
ENDBRANCH   5   6
ENDBRANCH   1   5
TORSDOF 3
ENDMDL
MODEL 5
REMARK VINA RESULT:      -7.0      1.294      1.513
REMARK SMILES CC(=O)CCc1ccc2c(c1)OCO2
REMARK SMILES IDX 4 1 2 2 1 3 3 4 5 5 6 6 7 7 11 8 8 9 10 10 9 11 12 12 14 13
REMARK SMILES IDX 13 14
REMARK H PARENT
REMARK Flexibility Score: inf
ROOT
ATOM      1  C   UNL     1       6.332   1.195   0.970  1.00  0.00     0.080 C 
ENDROOT
BRANCH   1   2
ATOM      2  C   UNL     1       5.605   0.385   1.968  1.00  0.00     0.130 C 
ATOM      3  C   UNL     1       6.264  -0.801   2.551  1.00  0.00     0.087 C 
ATOM      4  O   UNL     1       4.488   0.709   2.286  1.00  0.00    -0.300 OA
ENDBRANCH   1   2
BRANCH   1   5
ATOM      5  C   UNL     1       5.833   0.918  -0.432  1.00  0.00     0.043 C 
BRANCH   5   6
ATOM      6  C   UNL     1       6.760   0.033  -1.144  1.00  0.00    -0.044 A 
ATOM      7  C   UNL     1       7.343   0.441  -2.326  1.00  0.00     0.008 A 
ATOM      8  C   UNL     1       7.082  -1.225  -0.668  1.00  0.00     0.054 A 
ATOM      9  C   UNL     1       8.228  -0.369  -3.032  1.00  0.00     0.051 A 
ATOM     10  C   UNL     1       7.965  -2.058  -1.353  1.00  0.00     0.166 A 
ATOM     11  C   UNL     1       8.531  -1.621  -2.532  1.00  0.00     0.165 A 
ATOM     12  O   UNL     1       8.465  -3.339  -1.125  1.00  0.00    -0.454 OA
ATOM     13  O   UNL     1       9.359  -2.630  -3.002  1.00  0.00    -0.454 OA
ATOM     14  C   UNL     1       9.120  -3.827  -2.267  1.00  0.00     0.468 C 
ENDBRANCH   5   6
ENDBRANCH   1   5
TORSDOF 3
ENDMDL
