@<TRIPOS>MOLECULE
/home/cewinharhar/GITHUB/reincatalyze/data/processed/docking_pred/2023-May-31-1603_sub9_nm5_bs15_s42_ex16_mel10_mts1000_k50_ec05_g099_lra3e-4_lrc9e-3/d475abeaf77d1f7cad9c775310647ad941a1fd31_ligand_9.pdbqt
 14 15 0 0 0
SMALL
GASTEIGER

@<TRIPOS>ATOM
      1  C          8.2780    0.2070   -2.5710 C.3     1  UNL1        0.0800
      2  C          7.9640   -1.2290   -2.7110 C.2     1  UNL1        0.1300
      3  C          9.0540   -2.1780   -3.0190 C.3     1  UNL1        0.0870
      4  O          6.8250   -1.5980   -2.5710 O.2     1  UNL1       -0.3000
      5  C          8.8260    0.5180   -1.1940 C.3     1  UNL1        0.0430
      6  C          7.7640    0.4350   -0.1870 C.2     1  UNL1       -0.0440
      7  C          7.7700   -0.5760    0.7510 C.2     1  UNL1        0.0080
      8  C          6.7290    1.3530   -0.1370 C.2     1  UNL1        0.0540
      9  C          6.7800   -0.6900    1.7240 C.2     1  UNL1        0.0510
     10  C          5.7250    1.2650    0.8250 C.2     1  UNL1        0.1660
     11  C          5.7600    0.2420    1.7490 C.2     1  UNL1        0.1650
     12  O          4.5900    2.0210    1.1140 O.2     1  UNL1       -0.4540
     13  O          4.6580    0.3850    2.5790 O.2     1  UNL1       -0.4540
     14  C          3.7620    1.3450    2.0250 C.3     1  UNL1        0.4680
@<TRIPOS>BOND
     1     3     2    1
     2     2     1    1
     3     2     4    2
     4     1     5    1
     5     5     6    1
     6     6     8    2
     7     6     7    1
     8     8    10    1
     9     7     9    2
    10    10    12    1
    11    10    11    2
    12    12    14    1
    13     9    11    1
    14    11    13    1
    15    14    13    1
