@<TRIPOS>MOLECULE
/home/cewinharhar/GITHUB/reincatalyze/data/processed/docking_pred/2023-May-31-1603_sub9_nm5_bs15_s42_ex16_mel10_mts1000_k50_ec05_g099_lra3e-4_lrc9e-3/d475abeaf77d1f7cad9c775310647ad941a1fd31_ligand_9.pdbqt
 14 15 0 0 0
SMALL
GASTEIGER

@<TRIPOS>ATOM
      1  C          6.5390    1.3090    0.4800 C.3     1  UNL1        0.0800
      2  C          5.3750    1.0880    1.3600 C.2     1  UNL1        0.1300
      3  C          5.2920   -0.1600    2.1460 C.3     1  UNL1        0.0870
      4  O          4.5140    1.9310    1.4200 O.2     1  UNL1       -0.3000
      5  C          6.2120    0.9660   -0.9590 C.3     1  UNL1        0.0430
      6  C          7.0060   -0.1810   -1.4080 C.2     1  UNL1       -0.0440
      7  C          7.4840   -0.2350   -2.7010 C.2     1  UNL1        0.0080
      8  C          7.3020   -1.2400   -0.5670 C.2     1  UNL1        0.0540
      9  C          8.2410   -1.3070   -3.1660 C.2     1  UNL1        0.0510
     10  C          8.0570   -2.3260   -1.0050 C.2     1  UNL1        0.1660
     11  C          8.5210   -2.3500   -2.3030 C.2     1  UNL1        0.1650
     12  O          8.5030   -3.5030   -0.4040 O.2     1  UNL1       -0.4540
     13  O          9.2340   -3.5280   -2.4760 O.2     1  UNL1       -0.4540
     14  C          9.0040   -4.3940   -1.3680 C.3     1  UNL1        0.4680
@<TRIPOS>BOND
     1     9     7    1
     2     9    11    2
     3     7     6    2
     4    13    11    1
     5    13    14    1
     6    11    10    1
     7     6     5    1
     8     6     8    1
     9    14    12    1
    10    10     8    2
    11    10    12    1
    12     5     1    1
    13     1     2    1
    14     2     4    2
    15     2     3    1
