@<TRIPOS>MOLECULE
/home/cewinharhar/GITHUB/reincatalyze/data/processed/docking_pred/2023-May-31-1603_sub9_nm5_bs15_s42_ex16_mel10_mts1000_k50_ec05_g099_lra3e-4_lrc9e-3/d475abeaf77d1f7cad9c775310647ad941a1fd31_ligand_9.pdbqt
 14 15 0 0 0
SMALL
GASTEIGER

@<TRIPOS>ATOM
      1  C          5.4150   -0.0090    1.8710 C.3     1  UNL1        0.0800
      2  C          4.6020    1.1980    1.6230 C.2     1  UNL1        0.1300
      3  C          4.9950    2.1230    0.5410 C.3     1  UNL1        0.0870
      4  O          3.6330    1.4060    2.3110 O.2     1  UNL1       -0.3000
      5  C          6.8680    0.2250    1.5140 C.3     1  UNL1        0.0430
      6  C          7.3220   -0.7610    0.5290 C.2     1  UNL1       -0.0440
      7  C          7.1570   -0.5240   -0.8200 C.2     1  UNL1        0.0080
      8  C          7.9220   -1.9490    0.9050 C.2     1  UNL1        0.0540
      9  C          7.5730   -1.4340   -1.7880 C.2     1  UNL1        0.0510
     10  C          8.3490   -2.8790   -0.0400 C.2     1  UNL1        0.1660
     11  C          8.1710   -2.6130   -1.3820 C.2     1  UNL1        0.1650
     12  O          8.9690   -4.1260    0.0360 O.2     1  UNL1       -0.4540
     13  O          8.6770   -3.6880   -2.0970 O.2     1  UNL1       -0.4540
     14  C          8.9390   -4.7730   -1.2110 C.3     1  UNL1        0.4680
@<TRIPOS>BOND
     1    13    11    1
     2    13    14    1
     3     9    11    2
     4     9     7    1
     5    11    10    1
     6    14    12    1
     7     7     6    2
     8    10    12    1
     9    10     8    2
    10     6     8    1
    11     6     5    1
    12     3     2    1
    13     5     1    1
    14     2     1    1
    15     2     4    2
