MODEL 1
REMARK VINA RESULT:      -7.5      0.000      0.000
REMARK SMILES CC(=O)CCc1ccc2c(c1)OCO2
REMARK SMILES IDX 4 1 2 2 1 3 3 4 5 5 6 6 7 7 11 8 8 9 10 10 9 11 12 12 14 13
REMARK SMILES IDX 13 14
REMARK H PARENT
REMARK Flexibility Score: inf
ROOT
ATOM      1  C   UNL     1       5.660   1.799   1.391  1.00  0.00     0.080 C 
ENDROOT
BRANCH   1   2
ATOM      2  C   UNL     1       5.161   0.592   2.080  1.00  0.00     0.130 C 
ATOM      3  C   UNL     1       6.058  -0.570   2.238  1.00  0.00     0.087 C 
ATOM      4  O   UNL     1       4.030   0.580   2.498  1.00  0.00    -0.300 OA
ENDBRANCH   1   2
BRANCH   1   5
ATOM      5  C   UNL     1       5.470   1.694  -0.108  1.00  0.00     0.043 C 
BRANCH   5   6
ATOM      6  C   UNL     1       6.585   0.964  -0.718  1.00  0.00    -0.044 A 
ATOM      7  C   UNL     1       7.880   1.412  -0.561  1.00  0.00     0.008 A 
ATOM      8  C   UNL     1       6.387  -0.184  -1.465  1.00  0.00     0.054 A 
ATOM      9  C   UNL     1       8.966   0.748  -1.125  1.00  0.00     0.051 A 
ATOM     10  C   UNL     1       7.453  -0.869  -2.042  1.00  0.00     0.166 A 
ATOM     11  C   UNL     1       8.737  -0.396  -1.866  1.00  0.00     0.165 A 
ATOM     12  O   UNL     1       7.560  -2.020  -2.823  1.00  0.00    -0.454 OA
ATOM     13  O   UNL     1       9.598  -1.254  -2.535  1.00  0.00    -0.454 OA
ATOM     14  C   UNL     1       8.848  -2.131  -3.370  1.00  0.00     0.468 C 
ENDBRANCH   5   6
ENDBRANCH   1   5
TORSDOF 3
ENDMDL
MODEL 2
REMARK VINA RESULT:      -7.3      1.668      2.080
REMARK SMILES CC(=O)CCc1ccc2c(c1)OCO2
REMARK SMILES IDX 4 1 2 2 1 3 3 4 5 5 6 6 7 7 11 8 8 9 10 10 9 11 12 12 14 13
REMARK SMILES IDX 13 14
REMARK H PARENT
REMARK Flexibility Score: inf
ROOT
ATOM      1  C   UNL     1       6.539   1.309   0.480  1.00  0.00     0.080 C 
ENDROOT
BRANCH   1   2
ATOM      2  C   UNL     1       5.375   1.088   1.360  1.00  0.00     0.130 C 
ATOM      3  C   UNL     1       5.292  -0.160   2.146  1.00  0.00     0.087 C 
ATOM      4  O   UNL     1       4.514   1.931   1.420  1.00  0.00    -0.300 OA
ENDBRANCH   1   2
BRANCH   1   5
ATOM      5  C   UNL     1       6.212   0.966  -0.959  1.00  0.00     0.043 C 
BRANCH   5   6
ATOM      6  C   UNL     1       7.006  -0.181  -1.408  1.00  0.00    -0.044 A 
ATOM      7  C   UNL     1       7.484  -0.235  -2.701  1.00  0.00     0.008 A 
ATOM      8  C   UNL     1       7.302  -1.240  -0.567  1.00  0.00     0.054 A 
ATOM      9  C   UNL     1       8.241  -1.307  -3.166  1.00  0.00     0.051 A 
ATOM     10  C   UNL     1       8.057  -2.326  -1.005  1.00  0.00     0.166 A 
ATOM     11  C   UNL     1       8.521  -2.350  -2.303  1.00  0.00     0.165 A 
ATOM     12  O   UNL     1       8.503  -3.503  -0.404  1.00  0.00    -0.454 OA
ATOM     13  O   UNL     1       9.234  -3.528  -2.476  1.00  0.00    -0.454 OA
ATOM     14  C   UNL     1       9.004  -4.394  -1.368  1.00  0.00     0.468 C 
ENDBRANCH   5   6
ENDBRANCH   1   5
TORSDOF 3
ENDMDL
MODEL 3
REMARK VINA RESULT:      -7.3      2.100      2.652
REMARK SMILES CC(=O)CCc1ccc2c(c1)OCO2
REMARK SMILES IDX 4 1 2 2 1 3 3 4 5 5 6 6 7 7 11 8 8 9 10 10 9 11 12 12 14 13
REMARK SMILES IDX 13 14
REMARK H PARENT
REMARK Flexibility Score: inf
ROOT
ATOM      1  C   UNL     1       5.415  -0.009   1.871  1.00  0.00     0.080 C 
ENDROOT
BRANCH   1   2
ATOM      2  C   UNL     1       4.602   1.198   1.623  1.00  0.00     0.130 C 
ATOM      3  C   UNL     1       4.995   2.123   0.541  1.00  0.00     0.087 C 
ATOM      4  O   UNL     1       3.633   1.406   2.311  1.00  0.00    -0.300 OA
ENDBRANCH   1   2
BRANCH   1   5
ATOM      5  C   UNL     1       6.868   0.225   1.514  1.00  0.00     0.043 C 
BRANCH   5   6
ATOM      6  C   UNL     1       7.322  -0.761   0.529  1.00  0.00    -0.044 A 
ATOM      7  C   UNL     1       7.157  -0.524  -0.820  1.00  0.00     0.008 A 
ATOM      8  C   UNL     1       7.922  -1.949   0.905  1.00  0.00     0.054 A 
ATOM      9  C   UNL     1       7.573  -1.434  -1.788  1.00  0.00     0.051 A 
ATOM     10  C   UNL     1       8.349  -2.879  -0.040  1.00  0.00     0.166 A 
ATOM     11  C   UNL     1       8.171  -2.613  -1.382  1.00  0.00     0.165 A 
ATOM     12  O   UNL     1       8.969  -4.126   0.036  1.00  0.00    -0.454 OA
ATOM     13  O   UNL     1       8.677  -3.688  -2.097  1.00  0.00    -0.454 OA
ATOM     14  C   UNL     1       8.939  -4.773  -1.211  1.00  0.00     0.468 C 
ENDBRANCH   5   6
ENDBRANCH   1   5
TORSDOF 3
ENDMDL
MODEL 4
REMARK VINA RESULT:      -7.1      1.977      2.561
REMARK SMILES CC(=O)CCc1ccc2c(c1)OCO2
REMARK SMILES IDX 4 1 2 2 1 3 3 4 5 5 6 6 7 7 11 8 8 9 10 10 9 11 12 12 14 13
REMARK SMILES IDX 13 14
REMARK H PARENT
REMARK Flexibility Score: inf
ROOT
ATOM      1  C   UNL     1       6.803   0.731   1.146  1.00  0.00     0.080 C 
ENDROOT
BRANCH   1   2
ATOM      2  C   UNL     1       5.408   1.141   1.402  1.00  0.00     0.130 C 
ATOM      3  C   UNL     1       4.780   2.150   0.525  1.00  0.00     0.087 C 
ATOM      4  O   UNL     1       4.808   0.643   2.322  1.00  0.00    -0.300 OA
ENDBRANCH   1   2
BRANCH   1   5
ATOM      5  C   UNL     1       7.156   0.871  -0.320  1.00  0.00     0.043 C 
BRANCH   5   6
ATOM      6  C   UNL     1       7.638  -0.405  -0.858  1.00  0.00    -0.044 A 
ATOM      7  C   UNL     1       7.817  -0.565  -2.216  1.00  0.00     0.008 A 
ATOM      8  C   UNL     1       7.926  -1.482  -0.039  1.00  0.00     0.054 A 
ATOM      9  C   UNL     1       8.271  -1.760  -2.767  1.00  0.00     0.051 A 
ATOM     10  C   UNL     1       8.382  -2.691  -0.561  1.00  0.00     0.166 A 
ATOM     11  C   UNL     1       8.551  -2.819  -1.924  1.00  0.00     0.165 A 
ATOM     12  O   UNL     1       8.744  -3.915  -0.001  1.00  0.00    -0.454 OA
ATOM     13  O   UNL     1       9.008  -4.105  -2.173  1.00  0.00    -0.454 OA
ATOM     14  C   UNL     1       8.877  -4.897  -0.996  1.00  0.00     0.468 C 
ENDBRANCH   5   6
ENDBRANCH   1   5
TORSDOF 3
ENDMDL
MODEL 5
REMARK VINA RESULT:      -7.0      1.191      5.185
REMARK SMILES CC(=O)CCc1ccc2c(c1)OCO2
REMARK SMILES IDX 4 1 2 2 1 3 3 4 5 5 6 6 7 7 11 8 8 9 10 10 9 11 12 12 14 13
REMARK SMILES IDX 13 14
REMARK H PARENT
REMARK Flexibility Score: inf
ROOT
ATOM      1  C   UNL     1       8.278   0.207  -2.571  1.00  0.00     0.080 C 
ENDROOT
BRANCH   1   2
ATOM      2  C   UNL     1       7.964  -1.229  -2.711  1.00  0.00     0.130 C 
ATOM      3  C   UNL     1       9.054  -2.178  -3.019  1.00  0.00     0.087 C 
ATOM      4  O   UNL     1       6.825  -1.598  -2.571  1.00  0.00    -0.300 OA
ENDBRANCH   1   2
BRANCH   1   5
ATOM      5  C   UNL     1       8.826   0.518  -1.194  1.00  0.00     0.043 C 
BRANCH   5   6
ATOM      6  C   UNL     1       7.764   0.435  -0.187  1.00  0.00    -0.044 A 
ATOM      7  C   UNL     1       7.770  -0.576   0.751  1.00  0.00     0.008 A 
ATOM      8  C   UNL     1       6.729   1.353  -0.137  1.00  0.00     0.054 A 
ATOM      9  C   UNL     1       6.780  -0.690   1.724  1.00  0.00     0.051 A 
ATOM     10  C   UNL     1       5.725   1.265   0.825  1.00  0.00     0.166 A 
ATOM     11  C   UNL     1       5.760   0.242   1.749  1.00  0.00     0.165 A 
ATOM     12  O   UNL     1       4.590   2.021   1.114  1.00  0.00    -0.454 OA
ATOM     13  O   UNL     1       4.658   0.385   2.579  1.00  0.00    -0.454 OA
ATOM     14  C   UNL     1       3.762   1.345   2.025  1.00  0.00     0.468 C 
ENDBRANCH   5   6
ENDBRANCH   1   5
TORSDOF 3
ENDMDL
