@<TRIPOS>MOLECULE
/home/cewinharhar/GITHUB/reincatalyze/data/processed/docking_pred/2023-May-31-1603_sub9_nm5_bs15_s42_ex16_mel10_mts1000_k50_ec05_g099_lra3e-4_lrc9e-3/d6fa7c89c21ca11aa73af88b15ecc664e93337c3_ligand_9.pdbqt
 14 15 0 0 0
SMALL
GASTEIGER

@<TRIPOS>ATOM
      1  C          5.6890    0.2900    1.4920 C.3     1  UNL1        0.0800
      2  C          4.9230    1.4780    1.0650 C.2     1  UNL1        0.1300
      3  C          5.2350    2.1090   -0.2340 C.3     1  UNL1        0.0870
      4  O          4.0570    1.9080    1.7850 O.2     1  UNL1       -0.3000
      5  C          6.6650   -0.1480    0.4190 C.3     1  UNL1        0.0430
      6  C          8.0140    0.3420    0.7180 C.2     1  UNL1       -0.0440
      7  C          8.9180    0.5590   -0.3010 C.2     1  UNL1        0.0080
      8  C          8.4280    0.6000    2.0130 C.2     1  UNL1        0.0540
      9  C         10.2080    1.0220   -0.0590 C.2     1  UNL1        0.0510
     10  C          9.7130    1.0650    2.2860 C.2     1  UNL1        0.1660
     11  C         10.5940    1.2720    1.2450 C.2     1  UNL1        0.1650
     12  O         10.3950    1.4040    3.4540 O.2     1  UNL1       -0.4540
     13  O         11.7870    1.7290    1.7860 O.2     1  UNL1       -0.4540
     14  C         11.7670    1.5600    3.2000 C.3     1  UNL1        0.4680
@<TRIPOS>BOND
     1     7     9    1
     2     7     6    2
     3     3     2    1
     4     9    11    2
     5     5     6    1
     6     5     1    1
     7     6     8    1
     8     2     1    1
     9     2     4    2
    10    11    13    1
    11    11    10    1
    12    13    14    1
    13     8    10    2
    14    10    12    1
    15    14    12    1
