@<TRIPOS>MOLECULE
/home/cewinharhar/GITHUB/reincatalyze/data/processed/docking_pred/2023-May-31-1603_sub9_nm5_bs15_s42_ex16_mel10_mts1000_k50_ec05_g099_lra3e-4_lrc9e-3/d6fa7c89c21ca11aa73af88b15ecc664e93337c3_ligand_9.pdbqt
 14 15 0 0 0
SMALL
GASTEIGER

@<TRIPOS>ATOM
      1  C          5.7810    0.0350    1.6680 C.3     1  UNL1        0.0800
      2  C          4.8090    1.1310    1.4790 C.2     1  UNL1        0.1300
      3  C          5.0030    2.0810    0.3650 C.3     1  UNL1        0.0870
      4  O          3.8770    1.2280    2.2380 O.2     1  UNL1       -0.3000
      5  C          6.9220    0.1360    0.6780 C.3     1  UNL1        0.0430
      6  C          8.1670    0.4980    1.3620 C.2     1  UNL1       -0.0440
      7  C          8.2060    1.5880    2.2080 C.2     1  UNL1        0.0080
      8  C          9.3350   -0.2240    1.1890 C.2     1  UNL1        0.0540
      9  C          9.3680    1.9660    2.8750 C.2     1  UNL1        0.0510
     10  C         10.5120    0.1300    1.8440 C.2     1  UNL1        0.1660
     11  C         10.5180    1.2240    2.6830 C.2     1  UNL1        0.1650
     12  O         11.8050   -0.3920    1.8660 O.2     1  UNL1       -0.4540
     13  O         11.7990    1.3530    3.1990 O.2     1  UNL1       -0.4540
     14  C         12.6920    0.5040    2.4850 C.3     1  UNL1        0.4680
@<TRIPOS>BOND
     1     3     2    1
     2     5     6    1
     3     5     1    1
     4     8     6    2
     5     8    10    1
     6     6     7    1
     7     2     1    1
     8     2     4    2
     9    10    12    1
    10    10    11    2
    11    12    14    1
    12     7     9    2
    13    14    13    1
    14    11     9    1
    15    11    13    1
