@<TRIPOS>MOLECULE
/home/cewinharhar/GITHUB/reincatalyze/data/processed/docking_pred/2023-May-31-1603_sub9_nm5_bs15_s42_ex16_mel10_mts1000_k50_ec05_g099_lra3e-4_lrc9e-3/d7d9c72b52c2e0a01b4806f6bcc2a503b8c9528b_ligand_9.pdbqt
 14 15 0 0 0
SMALL
GASTEIGER

@<TRIPOS>ATOM
      1  C          5.6950    1.3150   -0.3310 C.3     1  UNL1        0.0800
      2  C          5.0810    1.2890    1.0110 C.2     1  UNL1        0.1300
      3  C          5.4480    0.2110    1.9510 C.3     1  UNL1        0.0870
      4  O          4.2920    2.1500    1.3130 O.2     1  UNL1       -0.3000
      5  C          7.2000    1.1660   -0.2490 C.3     1  UNL1        0.0430
      6  C          7.6250   -0.1030   -0.8480 C.2     1  UNL1       -0.0440
      7  C          7.6940   -0.2380   -2.2190 C.2     1  UNL1        0.0080
      8  C          7.9690   -1.1980   -0.0750 C.2     1  UNL1        0.0540
      9  C          8.0920   -1.4260   -2.8260 C.2     1  UNL1        0.0510
     10  C          8.3710   -2.3990   -0.6540 C.2     1  UNL1        0.1660
     11  C          8.4290   -2.5030   -2.0280 C.2     1  UNL1        0.1650
     12  O          8.7670   -3.6370   -0.1480 O.2     1  UNL1       -0.4540
     13  O          8.8530   -3.7870   -2.3380 O.2     1  UNL1       -0.4540
     14  C          8.8110   -4.6000   -1.1680 C.3     1  UNL1        0.4680
@<TRIPOS>BOND
     1     9     7    1
     2     9    11    2
     3    13    11    1
     4    13    14    1
     5     7     6    2
     6    11    10    1
     7    14    12    1
     8     6     5    1
     9     6     8    1
    10    10    12    1
    11    10     8    2
    12     1     5    1
    13     1     2    1
    14     2     4    2
    15     2     3    1
