@<TRIPOS>MOLECULE
/home/cewinharhar/GITHUB/reincatalyze/data/processed/docking_pred/2023-May-31-1603_sub9_nm5_bs15_s42_ex16_mel10_mts1000_k50_ec05_g099_lra3e-4_lrc9e-3/d7d9c72b52c2e0a01b4806f6bcc2a503b8c9528b_ligand_9.pdbqt
 14 15 0 0 0
SMALL
GASTEIGER

@<TRIPOS>ATOM
      1  C          5.6140    1.8490    1.3330 C.3     1  UNL1        0.0800
      2  C          5.1370    0.6510    2.0540 C.2     1  UNL1        0.1300
      3  C          6.0540   -0.4910    2.2390 C.3     1  UNL1        0.0870
      4  O          4.0070    0.6310    2.4770 O.2     1  UNL1       -0.3000
      5  C          5.4310    1.6980   -0.1630 C.3     1  UNL1        0.0430
      6  C          6.5590    0.9680   -0.7480 C.2     1  UNL1       -0.0440
      7  C          7.8490    1.4260   -0.5770 C.2     1  UNL1        0.0080
      8  C          6.3790   -0.1900   -1.4850 C.2     1  UNL1        0.0540
      9  C          8.9480    0.7620   -1.1170 C.2     1  UNL1        0.0510
     10  C          7.4590   -0.8750   -2.0370 C.2     1  UNL1        0.1660
     11  C          8.7370   -0.3920   -1.8480 C.2     1  UNL1        0.1650
     12  O          7.5840   -2.0340   -2.8030 O.2     1  UNL1       -0.4540
     13  O          9.6130   -1.2520   -2.4940 O.2     1  UNL1       -0.4540
     14  C          8.8810   -2.1430   -3.3300 C.3     1  UNL1        0.4680
@<TRIPOS>BOND
     1    14    12    1
     2    14    13    1
     3    12    10    1
     4    13    11    1
     5    10    11    2
     6    10     8    1
     7    11     9    1
     8     8     6    2
     9     9     7    2
    10     6     7    1
    11     6     5    1
    12     5     1    1
    13     1     2    1
    14     2     3    1
    15     2     4    2
