MODEL 1
REMARK VINA RESULT:      -7.5      0.000      0.000
REMARK SMILES CC(=O)CCc1ccc2c(c1)OCO2
REMARK SMILES IDX 4 1 2 2 1 3 3 4 5 5 6 6 7 7 11 8 8 9 10 10 9 11 12 12 14 13
REMARK SMILES IDX 13 14
REMARK H PARENT
REMARK Flexibility Score: inf
ROOT
ATOM      1  C   UNL     1       5.614   1.849   1.333  1.00  0.00     0.080 C 
ENDROOT
BRANCH   1   2
ATOM      2  C   UNL     1       5.137   0.651   2.054  1.00  0.00     0.130 C 
ATOM      3  C   UNL     1       6.054  -0.491   2.239  1.00  0.00     0.087 C 
ATOM      4  O   UNL     1       4.007   0.631   2.477  1.00  0.00    -0.300 OA
ENDBRANCH   1   2
BRANCH   1   5
ATOM      5  C   UNL     1       5.431   1.698  -0.163  1.00  0.00     0.043 C 
BRANCH   5   6
ATOM      6  C   UNL     1       6.559   0.968  -0.748  1.00  0.00    -0.044 A 
ATOM      7  C   UNL     1       7.849   1.426  -0.577  1.00  0.00     0.008 A 
ATOM      8  C   UNL     1       6.379  -0.190  -1.485  1.00  0.00     0.054 A 
ATOM      9  C   UNL     1       8.948   0.762  -1.117  1.00  0.00     0.051 A 
ATOM     10  C   UNL     1       7.459  -0.875  -2.037  1.00  0.00     0.166 A 
ATOM     11  C   UNL     1       8.737  -0.392  -1.848  1.00  0.00     0.165 A 
ATOM     12  O   UNL     1       7.584  -2.034  -2.803  1.00  0.00    -0.454 OA
ATOM     13  O   UNL     1       9.613  -1.252  -2.494  1.00  0.00    -0.454 OA
ATOM     14  C   UNL     1       8.881  -2.143  -3.330  1.00  0.00     0.468 C 
ENDBRANCH   5   6
ENDBRANCH   1   5
TORSDOF 3
ENDMDL
MODEL 2
REMARK VINA RESULT:      -7.4      1.839      2.281
REMARK SMILES CC(=O)CCc1ccc2c(c1)OCO2
REMARK SMILES IDX 4 1 2 2 1 3 3 4 5 5 6 6 7 7 11 8 8 9 10 10 9 11 12 12 14 13
REMARK SMILES IDX 13 14
REMARK H PARENT
REMARK Flexibility Score: inf
ROOT
ATOM      1  C   UNL     1       5.695   1.315  -0.331  1.00  0.00     0.080 C 
ENDROOT
BRANCH   1   2
ATOM      2  C   UNL     1       5.081   1.289   1.011  1.00  0.00     0.130 C 
ATOM      3  C   UNL     1       5.448   0.211   1.951  1.00  0.00     0.087 C 
ATOM      4  O   UNL     1       4.292   2.150   1.313  1.00  0.00    -0.300 OA
ENDBRANCH   1   2
BRANCH   1   5
ATOM      5  C   UNL     1       7.200   1.166  -0.249  1.00  0.00     0.043 C 
BRANCH   5   6
ATOM      6  C   UNL     1       7.625  -0.103  -0.848  1.00  0.00    -0.044 A 
ATOM      7  C   UNL     1       7.694  -0.238  -2.219  1.00  0.00     0.008 A 
ATOM      8  C   UNL     1       7.969  -1.198  -0.075  1.00  0.00     0.054 A 
ATOM      9  C   UNL     1       8.092  -1.426  -2.826  1.00  0.00     0.051 A 
ATOM     10  C   UNL     1       8.371  -2.399  -0.654  1.00  0.00     0.166 A 
ATOM     11  C   UNL     1       8.429  -2.503  -2.028  1.00  0.00     0.165 A 
ATOM     12  O   UNL     1       8.767  -3.637  -0.148  1.00  0.00    -0.454 OA
ATOM     13  O   UNL     1       8.853  -3.787  -2.338  1.00  0.00    -0.454 OA
ATOM     14  C   UNL     1       8.811  -4.600  -1.168  1.00  0.00     0.468 C 
ENDBRANCH   5   6
ENDBRANCH   1   5
TORSDOF 3
ENDMDL
MODEL 3
REMARK VINA RESULT:      -7.3      2.095      2.642
REMARK SMILES CC(=O)CCc1ccc2c(c1)OCO2
REMARK SMILES IDX 4 1 2 2 1 3 3 4 5 5 6 6 7 7 11 8 8 9 10 10 9 11 12 12 14 13
REMARK SMILES IDX 13 14
REMARK H PARENT
REMARK Flexibility Score: inf
ROOT
ATOM      1  C   UNL     1       5.454   0.007   1.885  1.00  0.00     0.080 C 
ENDROOT
BRANCH   1   2
ATOM      2  C   UNL     1       4.617   1.197   1.636  1.00  0.00     0.130 C 
ATOM      3  C   UNL     1       5.013   2.148   0.578  1.00  0.00     0.087 C 
ATOM      4  O   UNL     1       3.626   1.369   2.302  1.00  0.00    -0.300 OA
ENDBRANCH   1   2
BRANCH   1   5
ATOM      5  C   UNL     1       6.895   0.256   1.490  1.00  0.00     0.043 C 
BRANCH   5   6
ATOM      6  C   UNL     1       7.340  -0.741   0.512  1.00  0.00    -0.044 A 
ATOM      7  C   UNL     1       7.169  -0.516  -0.839  1.00  0.00     0.008 A 
ATOM      8  C   UNL     1       7.939  -1.928   0.896  1.00  0.00     0.054 A 
ATOM      9  C   UNL     1       7.578  -1.437  -1.800  1.00  0.00     0.051 A 
ATOM     10  C   UNL     1       8.358  -2.868  -0.042  1.00  0.00     0.166 A 
ATOM     11  C   UNL     1       8.173  -2.613  -1.385  1.00  0.00     0.165 A 
ATOM     12  O   UNL     1       8.973  -4.116   0.042  1.00  0.00    -0.454 OA
ATOM     13  O   UNL     1       8.672  -3.697  -2.093  1.00  0.00    -0.454 OA
ATOM     14  C   UNL     1       8.935  -4.774  -1.198  1.00  0.00     0.468 C 
ENDBRANCH   5   6
ENDBRANCH   1   5
TORSDOF 3
ENDMDL
MODEL 4
REMARK VINA RESULT:      -7.1      1.946      2.561
REMARK SMILES CC(=O)CCc1ccc2c(c1)OCO2
REMARK SMILES IDX 4 1 2 2 1 3 3 4 5 5 6 6 7 7 11 8 8 9 10 10 9 11 12 12 14 13
REMARK SMILES IDX 13 14
REMARK H PARENT
REMARK Flexibility Score: inf
ROOT
ATOM      1  C   UNL     1       6.772   0.696   1.037  1.00  0.00     0.080 C 
ENDROOT
BRANCH   1   2
ATOM      2  C   UNL     1       5.402   1.136   1.368  1.00  0.00     0.130 C 
ATOM      3  C   UNL     1       4.745   2.150   0.518  1.00  0.00     0.087 C 
ATOM      4  O   UNL     1       4.847   0.658   2.326  1.00  0.00    -0.300 OA
ENDBRANCH   1   2
BRANCH   1   5
ATOM      5  C   UNL     1       7.037   0.799  -0.451  1.00  0.00     0.043 C 
BRANCH   5   6
ATOM      6  C   UNL     1       7.572  -0.464  -0.967  1.00  0.00    -0.044 A 
ATOM      7  C   UNL     1       7.815  -0.619  -2.316  1.00  0.00     0.008 A 
ATOM      8  C   UNL     1       7.851  -1.536  -0.136  1.00  0.00     0.054 A 
ATOM      9  C   UNL     1       8.322  -1.802  -2.846  1.00  0.00     0.051 A 
ATOM     10  C   UNL     1       8.359  -2.732  -0.638  1.00  0.00     0.166 A 
ATOM     11  C   UNL     1       8.591  -2.855  -1.992  1.00  0.00     0.165 A 
ATOM     12  O   UNL     1       8.726  -3.948  -0.062  1.00  0.00    -0.454 OA
ATOM     13  O   UNL     1       9.090  -4.129  -2.221  1.00  0.00    -0.454 OA
ATOM     14  C   UNL     1       8.927  -4.925  -1.050  1.00  0.00     0.468 C 
ENDBRANCH   5   6
ENDBRANCH   1   5
TORSDOF 3
ENDMDL
MODEL 5
REMARK VINA RESULT:      -7.0      1.213      5.168
REMARK SMILES CC(=O)CCc1ccc2c(c1)OCO2
REMARK SMILES IDX 4 1 2 2 1 3 3 4 5 5 6 6 7 7 11 8 8 9 10 10 9 11 12 12 14 13
REMARK SMILES IDX 13 14
REMARK H PARENT
REMARK Flexibility Score: inf
ROOT
ATOM      1  C   UNL     1       8.341   0.182  -2.616  1.00  0.00     0.080 C 
ENDROOT
BRANCH   1   2
ATOM      2  C   UNL     1       8.012  -1.254  -2.712  1.00  0.00     0.130 C 
ATOM      3  C   UNL     1       9.093  -2.224  -2.979  1.00  0.00     0.087 C 
ATOM      4  O   UNL     1       6.867  -1.605  -2.572  1.00  0.00    -0.300 OA
ENDBRANCH   1   2
BRANCH   1   5
ATOM      5  C   UNL     1       8.890   0.529  -1.248  1.00  0.00     0.043 C 
BRANCH   5   6
ATOM      6  C   UNL     1       7.838   0.436  -0.231  1.00  0.00    -0.044 A 
ATOM      7  C   UNL     1       7.858  -0.580   0.701  1.00  0.00     0.008 A 
ATOM      8  C   UNL     1       6.800   1.348  -0.167  1.00  0.00     0.054 A 
ATOM      9  C   UNL     1       6.878  -0.704   1.682  1.00  0.00     0.051 A 
ATOM     10  C   UNL     1       5.805   1.250   0.803  1.00  0.00     0.166 A 
ATOM     11  C   UNL     1       5.853   0.222   1.721  1.00  0.00     0.165 A 
ATOM     12  O   UNL     1       4.668   1.999   1.107  1.00  0.00    -0.454 OA
ATOM     13  O   UNL     1       4.757   0.356   2.562  1.00  0.00    -0.454 OA
ATOM     14  C   UNL     1       3.852   1.314   2.021  1.00  0.00     0.468 C 
ENDBRANCH   5   6
ENDBRANCH   1   5
TORSDOF 3
ENDMDL
