@<TRIPOS>MOLECULE
/home/cewinharhar/GITHUB/reincatalyze/data/processed/docking_pred/2023-May-31-1603_sub9_nm5_bs15_s42_ex16_mel10_mts1000_k50_ec05_g099_lra3e-4_lrc9e-3/d7d9c72b52c2e0a01b4806f6bcc2a503b8c9528b_ligand_9.pdbqt
 14 15 0 0 0
SMALL
GASTEIGER

@<TRIPOS>ATOM
      1  C          8.3410    0.1820   -2.6160 C.3     1  UNL1        0.0800
      2  C          8.0120   -1.2540   -2.7120 C.2     1  UNL1        0.1300
      3  C          9.0930   -2.2240   -2.9790 C.3     1  UNL1        0.0870
      4  O          6.8670   -1.6050   -2.5720 O.2     1  UNL1       -0.3000
      5  C          8.8900    0.5290   -1.2480 C.3     1  UNL1        0.0430
      6  C          7.8380    0.4360   -0.2310 C.2     1  UNL1       -0.0440
      7  C          7.8580   -0.5800    0.7010 C.2     1  UNL1        0.0080
      8  C          6.8000    1.3480   -0.1670 C.2     1  UNL1        0.0540
      9  C          6.8780   -0.7040    1.6820 C.2     1  UNL1        0.0510
     10  C          5.8050    1.2500    0.8030 C.2     1  UNL1        0.1660
     11  C          5.8530    0.2220    1.7210 C.2     1  UNL1        0.1650
     12  O          4.6680    1.9990    1.1070 O.2     1  UNL1       -0.4540
     13  O          4.7570    0.3560    2.5620 O.2     1  UNL1       -0.4540
     14  C          3.8520    1.3140    2.0210 C.3     1  UNL1        0.4680
@<TRIPOS>BOND
     1     3     2    1
     2     2     1    1
     3     2     4    2
     4     1     5    1
     5     5     6    1
     6     6     8    2
     7     6     7    1
     8     8    10    1
     9     7     9    2
    10    10    12    1
    11    10    11    2
    12    12    14    1
    13     9    11    1
    14    11    13    1
    15    14    13    1
