@<TRIPOS>MOLECULE
/home/cewinharhar/GITHUB/reincatalyze/data/processed/docking_pred/2023-May-31-1603_sub9_nm5_bs15_s42_ex16_mel10_mts1000_k50_ec05_g099_lra3e-4_lrc9e-3/d98db6e7330c4682e6208573911aa9edae27e8f4_ligand_9.pdbqt
 14 15 0 0 0
SMALL
GASTEIGER

@<TRIPOS>ATOM
      1  C          6.2410    1.3300    0.9270 C.3     1  UNL1        0.0800
      2  C          5.5740    0.4930    1.9450 C.2     1  UNL1        0.1300
      3  C          6.2930   -0.6690    2.5070 C.3     1  UNL1        0.0870
      4  O          4.4550    0.7750    2.2970 O.2     1  UNL1       -0.3000
      5  C          5.7360    1.0080   -0.4640 C.3     1  UNL1        0.0430
      6  C          6.6930    0.1540   -1.1740 C.2     1  UNL1       -0.0440
      7  C          7.3620    0.6300   -2.2830 C.2     1  UNL1        0.0080
      8  C          6.9590   -1.1420   -0.7690 C.2     1  UNL1        0.0540
      9  C          8.2770   -0.1490   -2.9860 C.2     1  UNL1        0.0510
     10  C          7.8690   -1.9450   -1.4520 C.2     1  UNL1        0.1660
     11  C          8.5220   -1.4400   -2.5570 C.2     1  UNL1        0.1650
     12  O          8.3290   -3.2510   -1.2830 O.2     1  UNL1       -0.4540
     13  O          9.3610   -2.4330   -3.0420 O.2     1  UNL1       -0.4540
     14  C          9.0510   -3.6730   -2.4120 C.3     1  UNL1        0.4680
@<TRIPOS>BOND
     1    13    11    1
     2    13    14    1
     3     9    11    2
     4     9     7    1
     5    11    10    1
     6    14    12    1
     7     7     6    2
     8    10    12    1
     9    10     8    2
    10     6     8    1
    11     6     5    1
    12     5     1    1
    13     1     2    1
    14     2     4    2
    15     2     3    1
