@<TRIPOS>MOLECULE
/home/cewinharhar/GITHUB/reincatalyze/data/processed/docking_pred/2023-May-31-1603_sub9_nm5_bs15_s42_ex16_mel10_mts1000_k50_ec05_g099_lra3e-4_lrc9e-3/d98db6e7330c4682e6208573911aa9edae27e8f4_ligand_9.pdbqt
 14 15 0 0 0
SMALL
GASTEIGER

@<TRIPOS>ATOM
      1  C          6.7720    0.6960    1.0370 C.3     1  UNL1        0.0800
      2  C          5.4020    1.1360    1.3680 C.2     1  UNL1        0.1300
      3  C          4.7450    2.1500    0.5180 C.3     1  UNL1        0.0870
      4  O          4.8470    0.6580    2.3260 O.2     1  UNL1       -0.3000
      5  C          7.0370    0.7990   -0.4510 C.3     1  UNL1        0.0430
      6  C          7.5720   -0.4640   -0.9670 C.2     1  UNL1       -0.0440
      7  C          7.8150   -0.6190   -2.3160 C.2     1  UNL1        0.0080
      8  C          7.8510   -1.5360   -0.1360 C.2     1  UNL1        0.0540
      9  C          8.3220   -1.8020   -2.8460 C.2     1  UNL1        0.0510
     10  C          8.3590   -2.7320   -0.6380 C.2     1  UNL1        0.1660
     11  C          8.5910   -2.8550   -1.9920 C.2     1  UNL1        0.1650
     12  O          8.7260   -3.9480   -0.0620 O.2     1  UNL1       -0.4540
     13  O          9.0900   -4.1290   -2.2210 O.2     1  UNL1       -0.4540
     14  C          8.9270   -4.9250   -1.0500 C.3     1  UNL1        0.4680
@<TRIPOS>BOND
     1     9     7    1
     2     9    11    2
     3     7     6    2
     4    13    11    1
     5    13    14    1
     6    11    10    1
     7    14    12    1
     8     6     5    1
     9     6     8    1
    10    10     8    2
    11    10    12    1
    12     5     1    1
    13     3     2    1
    14     1     2    1
    15     2     4    2
