@<TRIPOS>MOLECULE
/home/cewinharhar/GITHUB/reincatalyze/data/processed/docking_pred/2023-May-31-1603_sub9_nm5_bs15_s42_ex16_mel10_mts1000_k50_ec05_g099_lra3e-4_lrc9e-3/d98db6e7330c4682e6208573911aa9edae27e8f4_ligand_9.pdbqt
 14 15 0 0 0
SMALL
GASTEIGER

@<TRIPOS>ATOM
      1  C          5.5670    1.8880    1.3240 C.3     1  UNL1        0.0800
      2  C          5.1190    0.6810    2.0480 C.2     1  UNL1        0.1300
      3  C          6.0630   -0.4400    2.2320 C.3     1  UNL1        0.0870
      4  O          3.9920    0.6360    2.4740 O.2     1  UNL1       -0.3000
      5  C          5.3890    1.7290   -0.1710 C.3     1  UNL1        0.0430
      6  C          6.5190    0.9970   -0.7490 C.2     1  UNL1       -0.0440
      7  C          7.8110    1.4320   -0.5410 C.2     1  UNL1        0.0080
      8  C          6.3390   -0.1420   -1.5160 C.2     1  UNL1        0.0540
      9  C          8.9120    0.7660   -1.0730 C.2     1  UNL1        0.0510
     10  C          7.4210   -0.8290   -2.0610 C.2     1  UNL1        0.1660
     11  C          8.7010   -0.3680   -1.8340 C.2     1  UNL1        0.1650
     12  O          7.5470   -1.9710   -2.8510 O.2     1  UNL1       -0.4540
     13  O          9.5800   -1.2250   -2.4820 O.2     1  UNL1       -0.4540
     14  C          8.8530   -2.0870   -3.3530 C.3     1  UNL1        0.4680
@<TRIPOS>BOND
     1    14    12    1
     2    14    13    1
     3    12    10    1
     4    13    11    1
     5    10    11    2
     6    10     8    1
     7    11     9    1
     8     8     6    2
     9     9     7    2
    10     6     7    1
    11     6     5    1
    12     5     1    1
    13     1     2    1
    14     2     3    1
    15     2     4    2
