MODEL 1
REMARK VINA RESULT:      -7.6      0.000      0.000
REMARK SMILES CC(=O)CCc1ccc2c(c1)OCO2
REMARK SMILES IDX 4 1 2 2 1 3 3 4 5 5 6 6 7 7 11 8 8 9 10 10 9 11 12 12 14 13
REMARK SMILES IDX 13 14
REMARK H PARENT
REMARK Flexibility Score: inf
ROOT
ATOM      1  C   UNL     1       5.567   1.888   1.324  1.00  0.00     0.080 C 
ENDROOT
BRANCH   1   2
ATOM      2  C   UNL     1       5.119   0.681   2.048  1.00  0.00     0.130 C 
ATOM      3  C   UNL     1       6.063  -0.440   2.232  1.00  0.00     0.087 C 
ATOM      4  O   UNL     1       3.992   0.636   2.474  1.00  0.00    -0.300 OA
ENDBRANCH   1   2
BRANCH   1   5
ATOM      5  C   UNL     1       5.389   1.729  -0.171  1.00  0.00     0.043 C 
BRANCH   5   6
ATOM      6  C   UNL     1       6.519   0.997  -0.749  1.00  0.00    -0.044 A 
ATOM      7  C   UNL     1       7.811   1.432  -0.541  1.00  0.00     0.008 A 
ATOM      8  C   UNL     1       6.339  -0.142  -1.516  1.00  0.00     0.054 A 
ATOM      9  C   UNL     1       8.912   0.766  -1.073  1.00  0.00     0.051 A 
ATOM     10  C   UNL     1       7.421  -0.829  -2.061  1.00  0.00     0.166 A 
ATOM     11  C   UNL     1       8.701  -0.368  -1.834  1.00  0.00     0.165 A 
ATOM     12  O   UNL     1       7.547  -1.971  -2.851  1.00  0.00    -0.454 OA
ATOM     13  O   UNL     1       9.580  -1.225  -2.482  1.00  0.00    -0.454 OA
ATOM     14  C   UNL     1       8.853  -2.087  -3.353  1.00  0.00     0.468 C 
ENDBRANCH   5   6
ENDBRANCH   1   5
TORSDOF 3
ENDMDL
MODEL 2
REMARK VINA RESULT:      -7.4      1.987      2.402
REMARK SMILES CC(=O)CCc1ccc2c(c1)OCO2
REMARK SMILES IDX 4 1 2 2 1 3 3 4 5 5 6 6 7 7 11 8 8 9 10 10 9 11 12 12 14 13
REMARK SMILES IDX 13 14
REMARK H PARENT
REMARK Flexibility Score: inf
ROOT
ATOM      1  C   UNL     1       5.673   1.236  -0.233  1.00  0.00     0.080 C 
ENDROOT
BRANCH   1   2
ATOM      2  C   UNL     1       5.046   1.231   1.104  1.00  0.00     0.130 C 
ATOM      3  C   UNL     1       5.308   0.102   2.019  1.00  0.00     0.087 C 
ATOM      4  O   UNL     1       4.331   2.149   1.421  1.00  0.00    -0.300 OA
ENDBRANCH   1   2
BRANCH   1   5
ATOM      5  C   UNL     1       7.177   1.080  -0.134  1.00  0.00     0.043 C 
BRANCH   5   6
ATOM      6  C   UNL     1       7.600  -0.202  -0.705  1.00  0.00    -0.044 A 
ATOM      7  C   UNL     1       7.642  -0.375  -2.073  1.00  0.00     0.008 A 
ATOM      8  C   UNL     1       7.968  -1.272   0.091  1.00  0.00     0.054 A 
ATOM      9  C   UNL     1       8.037  -1.577  -2.655  1.00  0.00     0.051 A 
ATOM     10  C   UNL     1       8.368  -2.486  -0.462  1.00  0.00     0.166 A 
ATOM     11  C   UNL     1       8.399  -2.628  -1.834  1.00  0.00     0.165 A 
ATOM     12  O   UNL     1       8.784  -3.706   0.071  1.00  0.00    -0.454 OA
ATOM     13  O   UNL     1       8.828  -3.917  -2.115  1.00  0.00    -0.454 OA
ATOM     14  C   UNL     1       8.815  -4.698  -0.923  1.00  0.00     0.468 C 
ENDBRANCH   5   6
ENDBRANCH   1   5
TORSDOF 3
ENDMDL
MODEL 3
REMARK VINA RESULT:      -7.3      2.131      2.671
REMARK SMILES CC(=O)CCc1ccc2c(c1)OCO2
REMARK SMILES IDX 4 1 2 2 1 3 3 4 5 5 6 6 7 7 11 8 8 9 10 10 9 11 12 12 14 13
REMARK SMILES IDX 13 14
REMARK H PARENT
REMARK Flexibility Score: inf
ROOT
ATOM      1  C   UNL     1       5.454   0.007   1.885  1.00  0.00     0.080 C 
ENDROOT
BRANCH   1   2
ATOM      2  C   UNL     1       4.617   1.197   1.636  1.00  0.00     0.130 C 
ATOM      3  C   UNL     1       5.013   2.148   0.578  1.00  0.00     0.087 C 
ATOM      4  O   UNL     1       3.626   1.369   2.302  1.00  0.00    -0.300 OA
ENDBRANCH   1   2
BRANCH   1   5
ATOM      5  C   UNL     1       6.895   0.256   1.490  1.00  0.00     0.043 C 
BRANCH   5   6
ATOM      6  C   UNL     1       7.340  -0.741   0.512  1.00  0.00    -0.044 A 
ATOM      7  C   UNL     1       7.169  -0.516  -0.839  1.00  0.00     0.008 A 
ATOM      8  C   UNL     1       7.939  -1.928   0.896  1.00  0.00     0.054 A 
ATOM      9  C   UNL     1       7.578  -1.437  -1.800  1.00  0.00     0.051 A 
ATOM     10  C   UNL     1       8.358  -2.868  -0.042  1.00  0.00     0.166 A 
ATOM     11  C   UNL     1       8.173  -2.613  -1.385  1.00  0.00     0.165 A 
ATOM     12  O   UNL     1       8.973  -4.116   0.042  1.00  0.00    -0.454 OA
ATOM     13  O   UNL     1       8.672  -3.697  -2.093  1.00  0.00    -0.454 OA
ATOM     14  C   UNL     1       8.935  -4.774  -1.198  1.00  0.00     0.468 C 
ENDBRANCH   5   6
ENDBRANCH   1   5
TORSDOF 3
ENDMDL
MODEL 4
REMARK VINA RESULT:      -7.1      1.987      2.595
REMARK SMILES CC(=O)CCc1ccc2c(c1)OCO2
REMARK SMILES IDX 4 1 2 2 1 3 3 4 5 5 6 6 7 7 11 8 8 9 10 10 9 11 12 12 14 13
REMARK SMILES IDX 13 14
REMARK H PARENT
REMARK Flexibility Score: inf
ROOT
ATOM      1  C   UNL     1       6.772   0.696   1.037  1.00  0.00     0.080 C 
ENDROOT
BRANCH   1   2
ATOM      2  C   UNL     1       5.402   1.136   1.368  1.00  0.00     0.130 C 
ATOM      3  C   UNL     1       4.745   2.150   0.518  1.00  0.00     0.087 C 
ATOM      4  O   UNL     1       4.847   0.658   2.326  1.00  0.00    -0.300 OA
ENDBRANCH   1   2
BRANCH   1   5
ATOM      5  C   UNL     1       7.037   0.799  -0.451  1.00  0.00     0.043 C 
BRANCH   5   6
ATOM      6  C   UNL     1       7.572  -0.464  -0.967  1.00  0.00    -0.044 A 
ATOM      7  C   UNL     1       7.815  -0.619  -2.316  1.00  0.00     0.008 A 
ATOM      8  C   UNL     1       7.851  -1.536  -0.136  1.00  0.00     0.054 A 
ATOM      9  C   UNL     1       8.322  -1.802  -2.846  1.00  0.00     0.051 A 
ATOM     10  C   UNL     1       8.359  -2.732  -0.638  1.00  0.00     0.166 A 
ATOM     11  C   UNL     1       8.591  -2.855  -1.992  1.00  0.00     0.165 A 
ATOM     12  O   UNL     1       8.726  -3.948  -0.062  1.00  0.00    -0.454 OA
ATOM     13  O   UNL     1       9.090  -4.129  -2.221  1.00  0.00    -0.454 OA
ATOM     14  C   UNL     1       8.927  -4.925  -1.050  1.00  0.00     0.468 C 
ENDBRANCH   5   6
ENDBRANCH   1   5
TORSDOF 3
ENDMDL
MODEL 5
REMARK VINA RESULT:      -7.1      1.233      1.401
REMARK SMILES CC(=O)CCc1ccc2c(c1)OCO2
REMARK SMILES IDX 4 1 2 2 1 3 3 4 5 5 6 6 7 7 11 8 8 9 10 10 9 11 12 12 14 13
REMARK SMILES IDX 13 14
REMARK H PARENT
REMARK Flexibility Score: inf
ROOT
ATOM      1  C   UNL     1       6.241   1.330   0.927  1.00  0.00     0.080 C 
ENDROOT
BRANCH   1   2
ATOM      2  C   UNL     1       5.574   0.493   1.945  1.00  0.00     0.130 C 
ATOM      3  C   UNL     1       6.293  -0.669   2.507  1.00  0.00     0.087 C 
ATOM      4  O   UNL     1       4.455   0.775   2.297  1.00  0.00    -0.300 OA
ENDBRANCH   1   2
BRANCH   1   5
ATOM      5  C   UNL     1       5.736   1.008  -0.464  1.00  0.00     0.043 C 
BRANCH   5   6
ATOM      6  C   UNL     1       6.693   0.154  -1.174  1.00  0.00    -0.044 A 
ATOM      7  C   UNL     1       7.362   0.630  -2.283  1.00  0.00     0.008 A 
ATOM      8  C   UNL     1       6.959  -1.142  -0.769  1.00  0.00     0.054 A 
ATOM      9  C   UNL     1       8.277  -0.149  -2.986  1.00  0.00     0.051 A 
ATOM     10  C   UNL     1       7.869  -1.945  -1.452  1.00  0.00     0.166 A 
ATOM     11  C   UNL     1       8.522  -1.440  -2.557  1.00  0.00     0.165 A 
ATOM     12  O   UNL     1       8.329  -3.251  -1.283  1.00  0.00    -0.454 OA
ATOM     13  O   UNL     1       9.361  -2.433  -3.042  1.00  0.00    -0.454 OA
ATOM     14  C   UNL     1       9.051  -3.673  -2.412  1.00  0.00     0.468 C 
ENDBRANCH   5   6
ENDBRANCH   1   5
TORSDOF 3
ENDMDL
