@<TRIPOS>MOLECULE
/home/cewinharhar/GITHUB/reincatalyze/data/processed/docking_pred/2023-May-31-1603_sub9_nm5_bs15_s42_ex16_mel10_mts1000_k50_ec05_g099_lra3e-4_lrc9e-3/da55d276f49f8aea3f2b333b6115ea57fe53d1b0_ligand_9.pdbqt
 14 15 0 0 0
SMALL
GASTEIGER

@<TRIPOS>ATOM
      1  C          5.6750    1.3920   -0.2790 C.3     1  UNL1        0.0800
      2  C          5.0520    1.3060    1.0570 C.2     1  UNL1        0.1300
      3  C          5.4170    0.1880    1.9510 C.3     1  UNL1        0.0870
      4  O          4.2580    2.1500    1.3910 O.2     1  UNL1       -0.3000
      5  C          7.1780    1.2250   -0.1960 C.3     1  UNL1        0.0430
      6  C          7.5910   -0.0370   -0.8150 C.2     1  UNL1       -0.0440
      7  C          7.6040   -0.1680   -2.1890 C.2     1  UNL1        0.0080
      8  C          7.9780   -1.1310   -0.0610 C.2     1  UNL1        0.0540
      9  C          7.9890   -1.3500   -2.8160 C.2     1  UNL1        0.0510
     10  C          8.3680   -2.3260   -0.6600 C.2     1  UNL1        0.1660
     11  C          8.3700   -2.4260   -2.0360 C.2     1  UNL1        0.1650
     12  O          8.7960   -3.5610   -0.1740 O.2     1  UNL1       -0.4540
     13  O          8.7940   -3.7050   -2.3660 O.2     1  UNL1       -0.4540
     14  C          8.8080   -4.5220   -1.1990 C.3     1  UNL1        0.4680
@<TRIPOS>BOND
     1     9     7    1
     2     9    11    2
     3    13    11    1
     4    13    14    1
     5     7     6    2
     6    11    10    1
     7    14    12    1
     8     6     5    1
     9     6     8    1
    10    10    12    1
    11    10     8    2
    12     1     5    1
    13     1     2    1
    14     2     4    2
    15     2     3    1
