@<TRIPOS>MOLECULE
/home/cewinharhar/GITHUB/reincatalyze/data/processed/docking_pred/2023-May-31-1603_sub9_nm5_bs15_s42_ex16_mel10_mts1000_k50_ec05_g099_lra3e-4_lrc9e-3/db57195a81496af8cffcd6b4d9524a1fe0637e4f_ligand_9.pdbqt
 14 15 0 0 0
SMALL
GASTEIGER

@<TRIPOS>ATOM
      1  C          5.3470   -0.0770    1.9860 C.3     1  UNL1        0.0800
      2  C          4.5320    1.1350    1.7720 C.2     1  UNL1        0.1300
      3  C          4.9320    2.0970    0.7250 C.3     1  UNL1        0.0870
      4  O          3.5550    1.3150    2.4560 O.2     1  UNL1       -0.3000
      5  C          6.8020    0.1730    1.6480 C.3     1  UNL1        0.0430
      6  C          7.2640   -0.7740    0.6290 C.2     1  UNL1       -0.0440
      7  C          7.0950   -0.4930   -0.7110 C.2     1  UNL1        0.0080
      8  C          7.8780   -1.9680    0.9640 C.2     1  UNL1        0.0540
      9  C          7.5190   -1.3660   -1.7090 C.2     1  UNL1        0.0510
     10  C          8.3120   -2.8610   -0.0120 C.2     1  UNL1        0.1660
     11  C          8.1290   -2.5520   -1.3430 C.2     1  UNL1        0.1650
     12  O          8.9450   -4.1040    0.0210 O.2     1  UNL1       -0.4540
     13  O          8.6450   -3.5970   -2.0950 O.2     1  UNL1       -0.4540
     14  C          8.9200   -4.7080   -1.2460 C.3     1  UNL1        0.4680
@<TRIPOS>BOND
     1    13    11    1
     2    13    14    1
     3     9    11    2
     4     9     7    1
     5    11    10    1
     6    14    12    1
     7     7     6    2
     8    10    12    1
     9    10     8    2
    10     6     8    1
    11     6     5    1
    12     3     2    1
    13     5     1    1
    14     2     1    1
    15     2     4    2
