MODEL 1
REMARK VINA RESULT:      -7.1      0.000      0.000
REMARK SMILES CC(=O)CCc1ccc2c(c1)OCO2
REMARK SMILES IDX 4 1 2 2 1 3 3 4 5 5 6 6 7 7 11 8 8 9 10 10 9 11 12 12 14 13
REMARK SMILES IDX 13 14
REMARK H PARENT
REMARK Flexibility Score: inf
ROOT
ATOM      1  C   UNL     1       9.749   1.318   2.600  1.00  0.00     0.080 C 
ENDROOT
BRANCH   1   2
ATOM      2  C   UNL     1      11.181   0.961   2.658  1.00  0.00     0.130 C 
ATOM      3  C   UNL     1      12.080   1.727   3.545  1.00  0.00     0.087 C 
ATOM      4  O   UNL     1      11.588   0.050   1.979  1.00  0.00    -0.300 OA
ENDBRANCH   1   2
BRANCH   1   5
ATOM      5  C   UNL     1       9.419   2.055   1.319  1.00  0.00     0.043 C 
BRANCH   5   6
ATOM      6  C   UNL     1       8.682   1.184   0.399  1.00  0.00    -0.044 A 
ATOM      7  C   UNL     1       7.317   1.031   0.527  1.00  0.00     0.008 A 
ATOM      8  C   UNL     1       9.315   0.491  -0.618  1.00  0.00     0.054 A 
ATOM      9  C   UNL     1       6.581   0.212  -0.326  1.00  0.00     0.051 A 
ATOM     10  C   UNL     1       8.606  -0.335  -1.486  1.00  0.00     0.166 A 
ATOM     11  C   UNL     1       7.241  -0.467  -1.332  1.00  0.00     0.165 A 
ATOM     12  O   UNL     1       8.960  -1.135  -2.573  1.00  0.00    -0.454 OA
ATOM     13  O   UNL     1       6.788  -1.336  -2.314  1.00  0.00    -0.454 OA
ATOM     14  C   UNL     1       7.898  -1.978  -2.936  1.00  0.00     0.468 C 
ENDBRANCH   5   6
ENDBRANCH   1   5
TORSDOF 3
ENDMDL
MODEL 2
REMARK VINA RESULT:      -7.1      2.664      5.485
REMARK SMILES CC(=O)CCc1ccc2c(c1)OCO2
REMARK SMILES IDX 4 1 2 2 1 3 3 4 5 5 6 6 7 7 11 8 8 9 10 10 9 11 12 12 14 13
REMARK SMILES IDX 13 14
REMARK H PARENT
REMARK Flexibility Score: inf
ROOT
ATOM      1  C   UNL     1       5.916   0.136   1.122  1.00  0.00     0.080 C 
ENDROOT
BRANCH   1   2
ATOM      2  C   UNL     1       5.058   1.326   0.952  1.00  0.00     0.130 C 
ATOM      3  C   UNL     1       5.139   2.100  -0.303  1.00  0.00     0.087 C 
ATOM      4  O   UNL     1       4.309   1.641   1.843  1.00  0.00    -0.300 OA
ENDBRANCH   1   2
BRANCH   1   5
ATOM      5  C   UNL     1       7.182   0.250   0.297  1.00  0.00     0.043 C 
BRANCH   5   6
ATOM      6  C   UNL     1       8.320   0.611   1.148  1.00  0.00    -0.044 A 
ATOM      7  C   UNL     1       8.227   1.675   2.021  1.00  0.00     0.008 A 
ATOM      8  C   UNL     1       9.513  -0.088   1.110  1.00  0.00     0.054 A 
ATOM      9  C   UNL     1       9.284   2.050   2.845  1.00  0.00     0.051 A 
ATOM     10  C   UNL     1      10.588   0.264   1.922  1.00  0.00     0.166 A 
ATOM     11  C   UNL     1      10.464   1.333   2.785  1.00  0.00     0.165 A 
ATOM     12  O   UNL     1      11.877  -0.239   2.099  1.00  0.00    -0.454 OA
ATOM     13  O   UNL     1      11.665   1.466   3.468  1.00  0.00    -0.454 OA
ATOM     14  C   UNL     1      12.659   0.652   2.853  1.00  0.00     0.468 C 
ENDBRANCH   5   6
ENDBRANCH   1   5
TORSDOF 3
ENDMDL
MODEL 3
REMARK VINA RESULT:      -7.0      2.710      3.943
REMARK SMILES CC(=O)CCc1ccc2c(c1)OCO2
REMARK SMILES IDX 4 1 2 2 1 3 3 4 5 5 6 6 7 7 11 8 8 9 10 10 9 11 12 12 14 13
REMARK SMILES IDX 13 14
REMARK H PARENT
REMARK Flexibility Score: inf
ROOT
ATOM      1  C   UNL     1       5.586   1.867   1.410  1.00  0.00     0.080 C 
ENDROOT
BRANCH   1   2
ATOM      2  C   UNL     1       5.069   0.652   2.072  1.00  0.00     0.130 C 
ATOM      3  C   UNL     1       5.953  -0.523   2.213  1.00  0.00     0.087 C 
ATOM      4  O   UNL     1       3.936   0.645   2.484  1.00  0.00    -0.300 OA
ENDBRANCH   1   2
BRANCH   1   5
ATOM      5  C   UNL     1       5.424   1.785  -0.094  1.00  0.00     0.043 C 
BRANCH   5   6
ATOM      6  C   UNL     1       6.538   1.043  -0.692  1.00  0.00    -0.044 A 
ATOM      7  C   UNL     1       7.839   1.447  -0.477  1.00  0.00     0.008 A 
ATOM      8  C   UNL     1       6.333  -0.073  -1.484  1.00  0.00     0.054 A 
ATOM      9  C   UNL     1       8.924   0.771  -1.028  1.00  0.00     0.051 A 
ATOM     10  C   UNL     1       7.399  -0.770  -2.048  1.00  0.00     0.166 A 
ATOM     11  C   UNL     1       8.688  -0.341  -1.814  1.00  0.00     0.165 A 
ATOM     12  O   UNL     1       7.499  -1.896  -2.865  1.00  0.00    -0.454 OA
ATOM     13  O   UNL     1       9.548  -1.200  -2.484  1.00  0.00    -0.454 OA
ATOM     14  C   UNL     1       8.802  -2.027  -3.373  1.00  0.00     0.468 C 
ENDBRANCH   5   6
ENDBRANCH   1   5
TORSDOF 3
ENDMDL
MODEL 4
REMARK VINA RESULT:      -7.0      3.340      4.359
REMARK SMILES CC(=O)CCc1ccc2c(c1)OCO2
REMARK SMILES IDX 4 1 2 2 1 3 3 4 5 5 6 6 7 7 11 8 8 9 10 10 9 11 12 12 14 13
REMARK SMILES IDX 13 14
REMARK H PARENT
REMARK Flexibility Score: inf
ROOT
ATOM      1  C   UNL     1       6.500   1.296   0.365  1.00  0.00     0.080 C 
ENDROOT
BRANCH   1   2
ATOM      2  C   UNL     1       5.342   1.223   1.279  1.00  0.00     0.130 C 
ATOM      3  C   UNL     1       5.179   0.036   2.142  1.00  0.00     0.087 C 
ATOM      4  O   UNL     1       4.553   2.135   1.302  1.00  0.00    -0.300 OA
ENDBRANCH   1   2
BRANCH   1   5
ATOM      5  C   UNL     1       6.138   0.800  -1.020  1.00  0.00     0.043 C 
BRANCH   5   6
ATOM      6  C   UNL     1       6.935  -0.379  -1.370  1.00  0.00    -0.044 A 
ATOM      7  C   UNL     1       7.350  -0.579  -2.670  1.00  0.00     0.008 A 
ATOM      8  C   UNL     1       7.296  -1.325  -0.426  1.00  0.00     0.054 A 
ATOM      9  C   UNL     1       8.107  -1.686  -3.044  1.00  0.00     0.051 A 
ATOM     10  C   UNL     1       8.053  -2.442  -0.770  1.00  0.00     0.166 A 
ATOM     11  C   UNL     1       8.453  -2.613  -2.079  1.00  0.00     0.165 A 
ATOM     12  O   UNL     1       8.555  -3.531  -0.058  1.00  0.00    -0.454 OA
ATOM     13  O   UNL     1       9.184  -3.791  -2.147  1.00  0.00    -0.454 OA
ATOM     14  C   UNL     1       9.028  -4.522  -0.934  1.00  0.00     0.468 C 
ENDBRANCH   5   6
ENDBRANCH   1   5
TORSDOF 3
ENDMDL
MODEL 5
REMARK VINA RESULT:      -6.9      3.149      4.454
REMARK SMILES CC(=O)CCc1ccc2c(c1)OCO2
REMARK SMILES IDX 4 1 2 2 1 3 3 4 5 5 6 6 7 7 11 8 8 9 10 10 9 11 12 12 14 13
REMARK SMILES IDX 13 14
REMARK H PARENT
REMARK Flexibility Score: inf
ROOT
ATOM      1  C   UNL     1       5.347  -0.077   1.986  1.00  0.00     0.080 C 
ENDROOT
BRANCH   1   2
ATOM      2  C   UNL     1       4.532   1.135   1.772  1.00  0.00     0.130 C 
ATOM      3  C   UNL     1       4.932   2.097   0.725  1.00  0.00     0.087 C 
ATOM      4  O   UNL     1       3.555   1.315   2.456  1.00  0.00    -0.300 OA
ENDBRANCH   1   2
BRANCH   1   5
ATOM      5  C   UNL     1       6.802   0.173   1.648  1.00  0.00     0.043 C 
BRANCH   5   6
ATOM      6  C   UNL     1       7.264  -0.774   0.629  1.00  0.00    -0.044 A 
ATOM      7  C   UNL     1       7.095  -0.493  -0.711  1.00  0.00     0.008 A 
ATOM      8  C   UNL     1       7.878  -1.968   0.964  1.00  0.00     0.054 A 
ATOM      9  C   UNL     1       7.519  -1.366  -1.709  1.00  0.00     0.051 A 
ATOM     10  C   UNL     1       8.312  -2.861  -0.012  1.00  0.00     0.166 A 
ATOM     11  C   UNL     1       8.129  -2.552  -1.343  1.00  0.00     0.165 A 
ATOM     12  O   UNL     1       8.945  -4.104   0.021  1.00  0.00    -0.454 OA
ATOM     13  O   UNL     1       8.645  -3.597  -2.095  1.00  0.00    -0.454 OA
ATOM     14  C   UNL     1       8.920  -4.708  -1.246  1.00  0.00     0.468 C 
ENDBRANCH   5   6
ENDBRANCH   1   5
TORSDOF 3
ENDMDL
