@<TRIPOS>MOLECULE
/home/cewinharhar/GITHUB/reincatalyze/data/processed/docking_pred/2023-May-31-1603_sub9_nm5_bs15_s42_ex16_mel10_mts1000_k50_ec05_g099_lra3e-4_lrc9e-3/db6d960fae65c9d90f474a1e8ae318b6f28ec3f2_ligand_9.pdbqt
 14 15 0 0 0
SMALL
GASTEIGER

@<TRIPOS>ATOM
      1  C          6.4140    1.1280    1.0330 C.3     1  UNL1        0.0800
      2  C          5.6340    0.3400    2.0090 C.2     1  UNL1        0.1300
      3  C          6.2350   -0.8720    2.6020 C.3     1  UNL1        0.0870
      4  O          4.5210    0.7020    2.3010 O.2     1  UNL1       -0.3000
      5  C          5.9240    0.8920   -0.3800 C.3     1  UNL1        0.0430
      6  C          6.8050   -0.0460   -1.0810 C.2     1  UNL1       -0.0440
      7  C          7.3150    0.2710   -2.3230 C.2     1  UNL1        0.0080
      8  C          7.1560   -1.2690   -0.5350 C.2     1  UNL1        0.0540
      9  C          8.1540   -0.5920   -3.0220 C.2     1  UNL1        0.0510
     10  C          7.9940   -2.1530   -1.2100 C.2     1  UNL1        0.1660
     11  C          8.4870   -1.8060   -2.4510 C.2     1  UNL1        0.1650
     12  O          8.5070   -3.4170   -0.9210 O.2     1  UNL1       -0.4540
     13  O          9.2840   -2.8510   -2.8960 O.2     1  UNL1       -0.4540
     14  C          9.0900   -3.9900   -2.0620 C.3     1  UNL1        0.4680
@<TRIPOS>BOND
     1     9    11    2
     2     9     7    1
     3    13    11    1
     4    13    14    1
     5    11    10    1
     6     7     6    2
     7    14    12    1
     8    10    12    1
     9    10     8    2
    10     6     8    1
    11     6     5    1
    12     5     1    1
    13     1     2    1
    14     2     4    2
    15     2     3    1
