@<TRIPOS>MOLECULE
/home/cewinharhar/GITHUB/reincatalyze/data/processed/docking_pred/2023-May-31-1603_sub9_nm5_bs15_s42_ex16_mel10_mts1000_k50_ec05_g099_lra3e-4_lrc9e-3/db6d960fae65c9d90f474a1e8ae318b6f28ec3f2_ligand_9.pdbqt
 14 15 0 0 0
SMALL
GASTEIGER

@<TRIPOS>ATOM
      1  C          6.7760    0.7800    1.2800 C.3     1  UNL1        0.0800
      2  C          5.3510    1.1410    1.4260 C.2     1  UNL1        0.1300
      3  C          4.7670    2.1500    0.5200 C.3     1  UNL1        0.0870
      4  O          4.6940    0.6030    2.2820 O.2     1  UNL1       -0.3000
      5  C          7.2450    0.9630   -0.1480 C.3     1  UNL1        0.0430
      6  C          7.6740   -0.3180   -0.7170 C.2     1  UNL1       -0.0440
      7  C          7.7650   -0.4780   -2.0840 C.2     1  UNL1        0.0080
      8  C          8.0000   -1.4010    0.0800 C.2     1  UNL1        0.0540
      9  C          8.1680   -1.6780   -2.6640 C.2     1  UNL1        0.0510
     10  C          8.4070   -2.6140   -0.4710 C.2     1  UNL1        0.1660
     11  C          8.4870   -2.7420   -1.8420 C.2     1  UNL1        0.1650
     12  O          8.7880   -3.8440    0.0640 O.2     1  UNL1       -0.4540
     13  O          8.9110   -4.0330   -2.1210 O.2     1  UNL1       -0.4540
     14  C          8.8450   -4.8260   -0.9390 C.3     1  UNL1        0.4680
@<TRIPOS>BOND
     1     9     7    1
     2     9    11    2
     3    13    11    1
     4    13    14    1
     5     7     6    2
     6    11    10    1
     7    14    12    1
     8     6     5    1
     9     6     8    1
    10    10    12    1
    11    10     8    2
    12     5     1    1
    13     3     2    1
    14     1     2    1
    15     2     4    2
