MODEL 1
REMARK VINA RESULT:      -7.5      0.000      0.000
REMARK SMILES CC(=O)CCc1ccc2c(c1)OCO2
REMARK SMILES IDX 4 1 2 2 1 3 3 4 5 5 6 6 7 7 11 8 8 9 10 10 9 11 12 12 14 13
REMARK SMILES IDX 13 14
REMARK H PARENT
REMARK Flexibility Score: inf
ROOT
ATOM      1  C   UNL     1       5.616   1.831   1.371  1.00  0.00     0.080 C 
ENDROOT
BRANCH   1   2
ATOM      2  C   UNL     1       5.145   0.620   2.073  1.00  0.00     0.130 C 
ATOM      3  C   UNL     1       6.068  -0.521   2.240  1.00  0.00     0.087 C 
ATOM      4  O   UNL     1       4.016   0.587   2.495  1.00  0.00    -0.300 OA
ENDBRANCH   1   2
BRANCH   1   5
ATOM      5  C   UNL     1       5.431   1.705  -0.127  1.00  0.00     0.043 C 
BRANCH   5   6
ATOM      6  C   UNL     1       6.553   0.977  -0.725  1.00  0.00    -0.044 A 
ATOM      7  C   UNL     1       7.847   1.423  -0.547  1.00  0.00     0.008 A 
ATOM      8  C   UNL     1       6.365  -0.167  -1.480  1.00  0.00     0.054 A 
ATOM      9  C   UNL     1       8.940   0.761  -1.099  1.00  0.00     0.051 A 
ATOM     10  C   UNL     1       7.440  -0.851  -2.045  1.00  0.00     0.166 A 
ATOM     11  C   UNL     1       8.721  -0.379  -1.848  1.00  0.00     0.165 A 
ATOM     12  O   UNL     1       7.556  -1.997  -2.830  1.00  0.00    -0.454 OA
ATOM     13  O   UNL     1       9.591  -1.234  -2.509  1.00  0.00    -0.454 OA
ATOM     14  C   UNL     1       8.853  -2.107  -3.360  1.00  0.00     0.468 C 
ENDBRANCH   5   6
ENDBRANCH   1   5
TORSDOF 3
ENDMDL
MODEL 2
REMARK VINA RESULT:      -7.4      1.885      2.367
REMARK SMILES CC(=O)CCc1ccc2c(c1)OCO2
REMARK SMILES IDX 4 1 2 2 1 3 3 4 5 5 6 6 7 7 11 8 8 9 10 10 9 11 12 12 14 13
REMARK SMILES IDX 13 14
REMARK H PARENT
REMARK Flexibility Score: inf
ROOT
ATOM      1  C   UNL     1       6.575   1.290   0.411  1.00  0.00     0.080 C 
ENDROOT
BRANCH   1   2
ATOM      2  C   UNL     1       5.377   1.230   1.273  1.00  0.00     0.130 C 
ATOM      3  C   UNL     1       5.165   0.045   2.129  1.00  0.00     0.087 C 
ATOM      4  O   UNL     1       4.597   2.149   1.260  1.00  0.00    -0.300 OA
ENDBRANCH   1   2
BRANCH   1   5
ATOM      5  C   UNL     1       6.260   0.833  -0.999  1.00  0.00     0.043 C 
BRANCH   5   6
ATOM      6  C   UNL     1       7.008  -0.384  -1.325  1.00  0.00    -0.044 A 
ATOM      7  C   UNL     1       7.408  -0.630  -2.622  1.00  0.00     0.008 A 
ATOM      8  C   UNL     1       7.337  -1.322  -0.361  1.00  0.00     0.054 A 
ATOM      9  C   UNL     1       8.119  -1.774  -2.973  1.00  0.00     0.051 A 
ATOM     10  C   UNL     1       8.048  -2.476  -0.683  1.00  0.00     0.166 A 
ATOM     11  C   UNL     1       8.433  -2.692  -1.989  1.00  0.00     0.165 A 
ATOM     12  O   UNL     1       8.510  -3.567   0.052  1.00  0.00    -0.454 OA
ATOM     13  O   UNL     1       9.117  -3.899  -2.033  1.00  0.00    -0.454 OA
ATOM     14  C   UNL     1       8.939  -4.595  -0.803  1.00  0.00     0.468 C 
ENDBRANCH   5   6
ENDBRANCH   1   5
TORSDOF 3
ENDMDL
MODEL 3
REMARK VINA RESULT:      -7.4      2.078      2.644
REMARK SMILES CC(=O)CCc1ccc2c(c1)OCO2
REMARK SMILES IDX 4 1 2 2 1 3 3 4 5 5 6 6 7 7 11 8 8 9 10 10 9 11 12 12 14 13
REMARK SMILES IDX 13 14
REMARK H PARENT
REMARK Flexibility Score: inf
ROOT
ATOM      1  C   UNL     1       5.375  -0.029   1.973  1.00  0.00     0.080 C 
ENDROOT
BRANCH   1   2
ATOM      2  C   UNL     1       4.534   1.166   1.759  1.00  0.00     0.130 C 
ATOM      3  C   UNL     1       4.912   2.134   0.710  1.00  0.00     0.087 C 
ATOM      4  O   UNL     1       3.556   1.327   2.445  1.00  0.00    -0.300 OA
ENDBRANCH   1   2
BRANCH   1   5
ATOM      5  C   UNL     1       6.817   0.238   1.594  1.00  0.00     0.043 C 
BRANCH   5   6
ATOM      6  C   UNL     1       7.275  -0.732   0.595  1.00  0.00    -0.044 A 
ATOM      7  C   UNL     1       7.103  -0.480  -0.750  1.00  0.00     0.008 A 
ATOM      8  C   UNL     1       7.887  -1.919   0.955  1.00  0.00     0.054 A 
ATOM      9  C   UNL     1       7.523  -1.375  -1.730  1.00  0.00     0.051 A 
ATOM     10  C   UNL     1       8.318  -2.834  -0.003  1.00  0.00     0.166 A 
ATOM     11  C   UNL     1       8.132  -2.553  -1.341  1.00  0.00     0.165 A 
ATOM     12  O   UNL     1       8.948  -4.077   0.056  1.00  0.00    -0.454 OA
ATOM     13  O   UNL     1       8.644  -3.616  -2.071  1.00  0.00    -0.454 OA
ATOM     14  C   UNL     1       8.919  -4.709  -1.198  1.00  0.00     0.468 C 
ENDBRANCH   5   6
ENDBRANCH   1   5
TORSDOF 3
ENDMDL
MODEL 4
REMARK VINA RESULT:      -7.1      2.006      2.550
REMARK SMILES CC(=O)CCc1ccc2c(c1)OCO2
REMARK SMILES IDX 4 1 2 2 1 3 3 4 5 5 6 6 7 7 11 8 8 9 10 10 9 11 12 12 14 13
REMARK SMILES IDX 13 14
REMARK H PARENT
REMARK Flexibility Score: inf
ROOT
ATOM      1  C   UNL     1       6.776   0.780   1.280  1.00  0.00     0.080 C 
ENDROOT
BRANCH   1   2
ATOM      2  C   UNL     1       5.351   1.141   1.426  1.00  0.00     0.130 C 
ATOM      3  C   UNL     1       4.767   2.150   0.520  1.00  0.00     0.087 C 
ATOM      4  O   UNL     1       4.694   0.603   2.282  1.00  0.00    -0.300 OA
ENDBRANCH   1   2
BRANCH   1   5
ATOM      5  C   UNL     1       7.245   0.963  -0.148  1.00  0.00     0.043 C 
BRANCH   5   6
ATOM      6  C   UNL     1       7.674  -0.318  -0.717  1.00  0.00    -0.044 A 
ATOM      7  C   UNL     1       7.765  -0.478  -2.084  1.00  0.00     0.008 A 
ATOM      8  C   UNL     1       8.000  -1.401   0.080  1.00  0.00     0.054 A 
ATOM      9  C   UNL     1       8.168  -1.678  -2.664  1.00  0.00     0.051 A 
ATOM     10  C   UNL     1       8.407  -2.614  -0.471  1.00  0.00     0.166 A 
ATOM     11  C   UNL     1       8.487  -2.742  -1.842  1.00  0.00     0.165 A 
ATOM     12  O   UNL     1       8.788  -3.844   0.064  1.00  0.00    -0.454 OA
ATOM     13  O   UNL     1       8.911  -4.033  -2.121  1.00  0.00    -0.454 OA
ATOM     14  C   UNL     1       8.845  -4.826  -0.939  1.00  0.00     0.468 C 
ENDBRANCH   5   6
ENDBRANCH   1   5
TORSDOF 3
ENDMDL
MODEL 5
REMARK VINA RESULT:      -7.1      1.387      1.645
REMARK SMILES CC(=O)CCc1ccc2c(c1)OCO2
REMARK SMILES IDX 4 1 2 2 1 3 3 4 5 5 6 6 7 7 11 8 8 9 10 10 9 11 12 12 14 13
REMARK SMILES IDX 13 14
REMARK H PARENT
REMARK Flexibility Score: inf
ROOT
ATOM      1  C   UNL     1       6.414   1.128   1.033  1.00  0.00     0.080 C 
ENDROOT
BRANCH   1   2
ATOM      2  C   UNL     1       5.634   0.340   2.009  1.00  0.00     0.130 C 
ATOM      3  C   UNL     1       6.235  -0.872   2.602  1.00  0.00     0.087 C 
ATOM      4  O   UNL     1       4.521   0.702   2.301  1.00  0.00    -0.300 OA
ENDBRANCH   1   2
BRANCH   1   5
ATOM      5  C   UNL     1       5.924   0.892  -0.380  1.00  0.00     0.043 C 
BRANCH   5   6
ATOM      6  C   UNL     1       6.805  -0.046  -1.081  1.00  0.00    -0.044 A 
ATOM      7  C   UNL     1       7.315   0.271  -2.323  1.00  0.00     0.008 A 
ATOM      8  C   UNL     1       7.156  -1.269  -0.535  1.00  0.00     0.054 A 
ATOM      9  C   UNL     1       8.154  -0.592  -3.022  1.00  0.00     0.051 A 
ATOM     10  C   UNL     1       7.994  -2.153  -1.210  1.00  0.00     0.166 A 
ATOM     11  C   UNL     1       8.487  -1.806  -2.451  1.00  0.00     0.165 A 
ATOM     12  O   UNL     1       8.507  -3.417  -0.921  1.00  0.00    -0.454 OA
ATOM     13  O   UNL     1       9.284  -2.851  -2.896  1.00  0.00    -0.454 OA
ATOM     14  C   UNL     1       9.090  -3.990  -2.062  1.00  0.00     0.468 C 
ENDBRANCH   5   6
ENDBRANCH   1   5
TORSDOF 3
ENDMDL
