@<TRIPOS>MOLECULE
/home/cewinharhar/GITHUB/reincatalyze/data/processed/docking_pred/2023-May-31-1603_sub9_nm5_bs15_s42_ex16_mel10_mts1000_k50_ec05_g099_lra3e-4_lrc9e-3/db6d960fae65c9d90f474a1e8ae318b6f28ec3f2_ligand_9.pdbqt
 14 15 0 0 0
SMALL
GASTEIGER

@<TRIPOS>ATOM
      1  C          6.5750    1.2900    0.4110 C.3     1  UNL1        0.0800
      2  C          5.3770    1.2300    1.2730 C.2     1  UNL1        0.1300
      3  C          5.1650    0.0450    2.1290 C.3     1  UNL1        0.0870
      4  O          4.5970    2.1490    1.2600 O.2     1  UNL1       -0.3000
      5  C          6.2600    0.8330   -0.9990 C.3     1  UNL1        0.0430
      6  C          7.0080   -0.3840   -1.3250 C.2     1  UNL1       -0.0440
      7  C          7.4080   -0.6300   -2.6220 C.2     1  UNL1        0.0080
      8  C          7.3370   -1.3220   -0.3610 C.2     1  UNL1        0.0540
      9  C          8.1190   -1.7740   -2.9730 C.2     1  UNL1        0.0510
     10  C          8.0480   -2.4760   -0.6830 C.2     1  UNL1        0.1660
     11  C          8.4330   -2.6920   -1.9890 C.2     1  UNL1        0.1650
     12  O          8.5100   -3.5670    0.0520 O.2     1  UNL1       -0.4540
     13  O          9.1170   -3.8990   -2.0330 O.2     1  UNL1       -0.4540
     14  C          8.9390   -4.5950   -0.8030 C.3     1  UNL1        0.4680
@<TRIPOS>BOND
     1     9     7    1
     2     9    11    2
     3     7     6    2
     4    13    11    1
     5    13    14    1
     6    11    10    1
     7     6     5    1
     8     6     8    1
     9     5     1    1
    10    14    12    1
    11    10     8    2
    12    10    12    1
    13     1     2    1
    14     4     2    2
    15     2     3    1
