MODEL 1
REMARK VINA RESULT:      -7.4      0.000      0.000
REMARK SMILES CC(=O)CCc1ccc2c(c1)OCO2
REMARK SMILES IDX 4 1 2 2 1 3 3 4 5 5 6 6 7 7 11 8 8 9 10 10 9 11 12 12 14 13
REMARK SMILES IDX 13 14
REMARK H PARENT
REMARK Flexibility Score: inf
ROOT
ATOM      1  C   UNL     1       5.815   1.814   1.463  1.00  0.00     0.080 C 
ENDROOT
BRANCH   1   2
ATOM      2  C   UNL     1       5.278   0.610   2.129  1.00  0.00     0.130 C 
ATOM      3  C   UNL     1       6.161  -0.556   2.331  1.00  0.00     0.087 C 
ATOM      4  O   UNL     1       4.129   0.605   2.496  1.00  0.00    -0.300 OA
ENDBRANCH   1   2
BRANCH   1   5
ATOM      5  C   UNL     1       5.603   1.751  -0.036  1.00  0.00     0.043 C 
BRANCH   5   6
ATOM      6  C   UNL     1       6.685   0.999  -0.678  1.00  0.00    -0.044 A 
ATOM      7  C   UNL     1       7.987   1.448  -0.600  1.00  0.00     0.008 A 
ATOM      8  C   UNL     1       6.448  -0.171  -1.378  1.00  0.00     0.054 A 
ATOM      9  C   UNL     1       9.043   0.763  -1.196  1.00  0.00     0.051 A 
ATOM     10  C   UNL     1       7.484  -0.877  -1.985  1.00  0.00     0.166 A 
ATOM     11  C   UNL     1       8.775  -0.403  -1.888  1.00  0.00     0.165 A 
ATOM     12  O   UNL     1       7.550  -2.052  -2.734  1.00  0.00    -0.454 OA
ATOM     13  O   UNL     1       9.601  -1.283  -2.573  1.00  0.00    -0.454 OA
ATOM     14  C   UNL     1       8.809  -2.184  -3.341  1.00  0.00     0.468 C 
ENDBRANCH   5   6
ENDBRANCH   1   5
TORSDOF 3
ENDMDL
MODEL 2
REMARK VINA RESULT:      -7.3      1.946      2.358
REMARK SMILES CC(=O)CCc1ccc2c(c1)OCO2
REMARK SMILES IDX 4 1 2 2 1 3 3 4 5 5 6 6 7 7 11 8 8 9 10 10 9 11 12 12 14 13
REMARK SMILES IDX 13 14
REMARK H PARENT
REMARK Flexibility Score: inf
ROOT
ATOM      1  C   UNL     1       5.681   1.209  -0.232  1.00  0.00     0.080 C 
ENDROOT
BRANCH   1   2
ATOM      2  C   UNL     1       5.061   1.217   1.108  1.00  0.00     0.130 C 
ATOM      3  C   UNL     1       5.313   0.087   2.026  1.00  0.00     0.087 C 
ATOM      4  O   UNL     1       4.362   2.147   1.426  1.00  0.00    -0.300 OA
ENDBRANCH   1   2
BRANCH   1   5
ATOM      5  C   UNL     1       7.187   1.074  -0.139  1.00  0.00     0.043 C 
BRANCH   5   6
ATOM      6  C   UNL     1       7.625  -0.208  -0.698  1.00  0.00    -0.044 A 
ATOM      7  C   UNL     1       7.726  -0.375  -2.064  1.00  0.00     0.008 A 
ATOM      8  C   UNL     1       7.949  -1.286   0.108  1.00  0.00     0.054 A 
ATOM      9  C   UNL     1       8.138  -1.577  -2.634  1.00  0.00     0.051 A 
ATOM     10  C   UNL     1       8.363  -2.500  -0.434  1.00  0.00     0.166 A 
ATOM     11  C   UNL     1       8.454  -2.635  -1.803  1.00  0.00     0.165 A 
ATOM     12  O   UNL     1       8.744  -3.726   0.110  1.00  0.00    -0.454 OA
ATOM     13  O   UNL     1       8.884  -3.927  -2.073  1.00  0.00    -0.454 OA
ATOM     14  C   UNL     1       8.812  -4.713  -0.887  1.00  0.00     0.468 C 
ENDBRANCH   5   6
ENDBRANCH   1   5
TORSDOF 3
ENDMDL
MODEL 3
REMARK VINA RESULT:      -7.3      2.027      2.619
REMARK SMILES CC(=O)CCc1ccc2c(c1)OCO2
REMARK SMILES IDX 4 1 2 2 1 3 3 4 5 5 6 6 7 7 11 8 8 9 10 10 9 11 12 12 14 13
REMARK SMILES IDX 13 14
REMARK H PARENT
REMARK Flexibility Score: inf
ROOT
ATOM      1  C   UNL     1       5.343  -0.052   1.999  1.00  0.00     0.080 C 
ENDROOT
BRANCH   1   2
ATOM      2  C   UNL     1       4.519   1.152   1.771  1.00  0.00     0.130 C 
ATOM      3  C   UNL     1       4.920   2.113   0.725  1.00  0.00     0.087 C 
ATOM      4  O   UNL     1       3.533   1.325   2.445  1.00  0.00    -0.300 OA
ENDBRANCH   1   2
BRANCH   1   5
ATOM      5  C   UNL     1       6.795   0.203   1.649  1.00  0.00     0.043 C 
BRANCH   5   6
ATOM      6  C   UNL     1       7.254  -0.750   0.634  1.00  0.00    -0.044 A 
ATOM      7  C   UNL     1       7.083  -0.476  -0.707  1.00  0.00     0.008 A 
ATOM      8  C   UNL     1       7.868  -1.942   0.974  1.00  0.00     0.054 A 
ATOM      9  C   UNL     1       7.504  -1.355  -1.702  1.00  0.00     0.051 A 
ATOM     10  C   UNL     1       8.301  -2.841   0.002  1.00  0.00     0.166 A 
ATOM     11  C   UNL     1       8.114  -2.538  -1.331  1.00  0.00     0.165 A 
ATOM     12  O   UNL     1       8.933  -4.083   0.040  1.00  0.00    -0.454 OA
ATOM     13  O   UNL     1       8.629  -3.588  -2.078  1.00  0.00    -0.454 OA
ATOM     14  C   UNL     1       8.905  -4.694  -1.224  1.00  0.00     0.468 C 
ENDBRANCH   5   6
ENDBRANCH   1   5
TORSDOF 3
ENDMDL
MODEL 4
REMARK VINA RESULT:      -7.1      1.213      1.388
REMARK SMILES CC(=O)CCc1ccc2c(c1)OCO2
REMARK SMILES IDX 4 1 2 2 1 3 3 4 5 5 6 6 7 7 11 8 8 9 10 10 9 11 12 12 14 13
REMARK SMILES IDX 13 14
REMARK H PARENT
REMARK Flexibility Score: inf
ROOT
ATOM      1  C   UNL     1       6.282   1.270   0.979  1.00  0.00     0.080 C 
ENDROOT
BRANCH   1   2
ATOM      2  C   UNL     1       5.593   0.435   1.983  1.00  0.00     0.130 C 
ATOM      3  C   UNL     1       6.281  -0.753   2.527  1.00  0.00     0.087 C 
ATOM      4  O   UNL     1       4.481   0.740   2.338  1.00  0.00    -0.300 OA
ENDBRANCH   1   2
BRANCH   1   5
ATOM      5  C   UNL     1       5.775   0.979  -0.419  1.00  0.00     0.043 C 
BRANCH   5   6
ATOM      6  C   UNL     1       6.713   0.109  -1.135  1.00  0.00    -0.044 A 
ATOM      7  C   UNL     1       7.340   0.554  -2.280  1.00  0.00     0.008 A 
ATOM      8  C   UNL     1       7.001  -1.173  -0.700  1.00  0.00     0.054 A 
ATOM      9  C   UNL     1       8.236  -0.241  -2.990  1.00  0.00     0.051 A 
ATOM     10  C   UNL     1       7.893  -1.991  -1.388  1.00  0.00     0.166 A 
ATOM     11  C   UNL     1       8.504  -1.517  -2.530  1.00  0.00     0.165 A 
ATOM     12  O   UNL     1       8.368  -3.289  -1.196  1.00  0.00    -0.454 OA
ATOM     13  O   UNL     1       9.333  -2.520  -3.014  1.00  0.00    -0.454 OA
ATOM     14  C   UNL     1       9.053  -3.741  -2.336  1.00  0.00     0.468 C 
ENDBRANCH   5   6
ENDBRANCH   1   5
TORSDOF 3
ENDMDL
MODEL 5
REMARK VINA RESULT:      -7.1      1.948      2.607
REMARK SMILES CC(=O)CCc1ccc2c(c1)OCO2
REMARK SMILES IDX 4 1 2 2 1 3 3 4 5 5 6 6 7 7 11 8 8 9 10 10 9 11 12 12 14 13
REMARK SMILES IDX 13 14
REMARK H PARENT
REMARK Flexibility Score: inf
ROOT
ATOM      1  C   UNL     1       6.613   0.579   0.921  1.00  0.00     0.080 C 
ENDROOT
BRANCH   1   2
ATOM      2  C   UNL     1       5.287   1.045   1.373  1.00  0.00     0.130 C 
ATOM      3  C   UNL     1       4.626   2.150   0.649  1.00  0.00     0.087 C 
ATOM      4  O   UNL     1       4.770   0.514   2.324  1.00  0.00    -0.300 OA
ENDBRANCH   1   2
BRANCH   1   5
ATOM      5  C   UNL     1       6.709   0.579  -0.591  1.00  0.00     0.043 C 
BRANCH   5   6
ATOM      6  C   UNL     1       7.347  -0.652  -1.067  1.00  0.00    -0.044 A 
ATOM      7  C   UNL     1       7.604  -0.828  -2.410  1.00  0.00     0.008 A 
ATOM      8  C   UNL     1       7.709  -1.670  -0.203  1.00  0.00     0.054 A 
ATOM      9  C   UNL     1       8.207  -1.983  -2.903  1.00  0.00     0.051 A 
ATOM     10  C   UNL     1       8.314  -2.836  -0.666  1.00  0.00     0.166 A 
ATOM     11  C   UNL     1       8.558  -2.982  -2.015  1.00  0.00     0.165 A 
ATOM     12  O   UNL     1       8.778  -4.000  -0.052  1.00  0.00    -0.454 OA
ATOM     13  O   UNL     1       9.160  -4.219  -2.204  1.00  0.00    -0.454 OA
ATOM     14  C   UNL     1       9.059  -4.988  -1.009  1.00  0.00     0.468 C 
ENDBRANCH   5   6
ENDBRANCH   1   5
TORSDOF 3
ENDMDL
