@<TRIPOS>MOLECULE
/home/cewinharhar/GITHUB/reincatalyze/data/processed/docking_pred/2023-May-31-1603_sub9_nm5_bs15_s42_ex16_mel10_mts1000_k50_ec05_g099_lra3e-4_lrc9e-3/dba3942d2f0306a5a819952336ad453bb769fd78_ligand_9.pdbqt
 14 15 0 0 0
SMALL
GASTEIGER

@<TRIPOS>ATOM
      1  C          5.6810    1.2090   -0.2320 C.3     1  UNL1        0.0800
      2  C          5.0610    1.2170    1.1080 C.2     1  UNL1        0.1300
      3  C          5.3130    0.0870    2.0260 C.3     1  UNL1        0.0870
      4  O          4.3620    2.1470    1.4260 O.2     1  UNL1       -0.3000
      5  C          7.1870    1.0740   -0.1390 C.3     1  UNL1        0.0430
      6  C          7.6250   -0.2080   -0.6980 C.2     1  UNL1       -0.0440
      7  C          7.7260   -0.3750   -2.0640 C.2     1  UNL1        0.0080
      8  C          7.9490   -1.2860    0.1080 C.2     1  UNL1        0.0540
      9  C          8.1380   -1.5770   -2.6340 C.2     1  UNL1        0.0510
     10  C          8.3630   -2.5000   -0.4340 C.2     1  UNL1        0.1660
     11  C          8.4540   -2.6350   -1.8030 C.2     1  UNL1        0.1650
     12  O          8.7440   -3.7260    0.1100 O.2     1  UNL1       -0.4540
     13  O          8.8840   -3.9270   -2.0730 O.2     1  UNL1       -0.4540
     14  C          8.8120   -4.7130   -0.8870 C.3     1  UNL1        0.4680
@<TRIPOS>BOND
     1     9     7    1
     2     9    11    2
     3    13    11    1
     4    13    14    1
     5     7     6    2
     6    11    10    1
     7    14    12    1
     8     6     5    1
     9     6     8    1
    10    10     8    2
    11    10    12    1
    12     1     5    1
    13     1     2    1
    14     2     4    2
    15     2     3    1
