MODEL 1
REMARK VINA RESULT:      -7.2      0.000      0.000
REMARK SMILES CC(=O)CCc1ccc2c(c1)OCO2
REMARK SMILES IDX 4 1 2 2 1 3 3 4 5 5 6 6 7 7 11 8 8 9 10 10 9 11 12 12 14 13
REMARK SMILES IDX 13 14
REMARK H PARENT
REMARK Flexibility Score: inf
ROOT
ATOM      1  C   UNL     1       6.351   1.162   1.018  1.00  0.00     0.080 C 
ENDROOT
BRANCH   1   2
ATOM      2  C   UNL     1       5.592   0.351   1.992  1.00  0.00     0.130 C 
ATOM      3  C   UNL     1       6.214  -0.861   2.562  1.00  0.00     0.087 C 
ATOM      4  O   UNL     1       4.478   0.696   2.301  1.00  0.00    -0.300 OA
ENDBRANCH   1   2
BRANCH   1   5
ATOM      5  C   UNL     1       5.858   0.927  -0.394  1.00  0.00     0.043 C 
BRANCH   5   6
ATOM      6  C   UNL     1       6.768   0.033  -1.116  1.00  0.00    -0.044 A 
ATOM      7  C   UNL     1       7.321   0.424  -2.318  1.00  0.00     0.008 A 
ATOM      8  C   UNL     1       7.103  -1.219  -0.630  1.00  0.00     0.054 A 
ATOM      9  C   UNL     1       8.189  -0.396  -3.035  1.00  0.00     0.051 A 
ATOM     10  C   UNL     1       7.968  -2.060  -1.325  1.00  0.00     0.166 A 
ATOM     11  C   UNL     1       8.505  -1.640  -2.524  1.00  0.00     0.165 A 
ATOM     12  O   UNL     1       8.475  -3.338  -1.091  1.00  0.00    -0.454 OA
ATOM     13  O   UNL     1       9.322  -2.656  -3.000  1.00  0.00    -0.454 OA
ATOM     14  C   UNL     1       9.102  -3.843  -2.242  1.00  0.00     0.468 C 
ENDBRANCH   5   6
ENDBRANCH   1   5
TORSDOF 3
ENDMDL
MODEL 2
REMARK VINA RESULT:      -7.1      1.208      1.370
REMARK SMILES CC(=O)CCc1ccc2c(c1)OCO2
REMARK SMILES IDX 4 1 2 2 1 3 3 4 5 5 6 6 7 7 11 8 8 9 10 10 9 11 12 12 14 13
REMARK SMILES IDX 13 14
REMARK H PARENT
REMARK Flexibility Score: inf
ROOT
ATOM      1  C   UNL     1       5.880   1.618   1.403  1.00  0.00     0.080 C 
ENDROOT
BRANCH   1   2
ATOM      2  C   UNL     1       5.336   0.436   2.099  1.00  0.00     0.130 C 
ATOM      3  C   UNL     1       6.203  -0.742   2.305  1.00  0.00     0.087 C 
ATOM      4  O   UNL     1       4.193   0.455   2.486  1.00  0.00    -0.300 OA
ENDBRANCH   1   2
BRANCH   1   5
ATOM      5  C   UNL     1       5.649   1.531  -0.091  1.00  0.00     0.043 C 
BRANCH   5   6
ATOM      6  C   UNL     1       6.744   0.804  -0.740  1.00  0.00    -0.044 A 
ATOM      7  C   UNL     1       8.035   1.286  -0.675  1.00  0.00     0.008 A 
ATOM      8  C   UNL     1       6.531  -0.375  -1.432  1.00  0.00     0.054 A 
ATOM      9  C   UNL     1       9.103   0.626  -1.278  1.00  0.00     0.051 A 
ATOM     10  C   UNL     1       7.579  -1.058  -2.045  1.00  0.00     0.166 A 
ATOM     11  C   UNL     1       8.859  -0.550  -1.963  1.00  0.00     0.165 A 
ATOM     12  O   UNL     1       7.668  -2.233  -2.790  1.00  0.00    -0.454 OA
ATOM     13  O   UNL     1       9.701  -1.412  -2.650  1.00  0.00    -0.454 OA
ATOM     14  C   UNL     1       8.925  -2.336  -3.408  1.00  0.00     0.468 C 
ENDBRANCH   5   6
ENDBRANCH   1   5
TORSDOF 3
ENDMDL
MODEL 3
REMARK VINA RESULT:      -7.1      1.096      1.373
REMARK SMILES CC(=O)CCc1ccc2c(c1)OCO2
REMARK SMILES IDX 4 1 2 2 1 3 3 4 5 5 6 6 7 7 11 8 8 9 10 10 9 11 12 12 14 13
REMARK SMILES IDX 13 14
REMARK H PARENT
REMARK Flexibility Score: inf
ROOT
ATOM      1  C   UNL     1       5.634   0.770   0.015  1.00  0.00     0.080 C 
ENDROOT
BRANCH   1   2
ATOM      2  C   UNL     1       5.835   1.040   1.453  1.00  0.00     0.130 C 
ATOM      3  C   UNL     1       7.030   1.792   1.885  1.00  0.00     0.087 C 
ATOM      4  O   UNL     1       5.018   0.640   2.245  1.00  0.00    -0.300 OA
ENDBRANCH   1   2
BRANCH   1   5
ATOM      5  C   UNL     1       6.921   0.956  -0.763  1.00  0.00     0.043 C 
BRANCH   5   6
ATOM      6  C   UNL     1       7.468  -0.342  -1.170  1.00  0.00    -0.044 A 
ATOM      7  C   UNL     1       7.709  -0.610  -2.501  1.00  0.00     0.008 A 
ATOM      8  C   UNL     1       7.760  -1.334  -0.251  1.00  0.00     0.054 A 
ATOM      9  C   UNL     1       8.227  -1.829  -2.929  1.00  0.00     0.051 A 
ATOM     10  C   UNL     1       8.280  -2.564  -0.648  1.00  0.00     0.166 A 
ATOM     11  C   UNL     1       8.509  -2.801  -1.987  1.00  0.00     0.165 A 
ATOM     12  O   UNL     1       8.661  -3.721   0.029  1.00  0.00    -0.454 OA
ATOM     13  O   UNL     1       9.021  -4.085  -2.107  1.00  0.00    -0.454 OA
ATOM     14  C   UNL     1       8.870  -4.778  -0.872  1.00  0.00     0.468 C 
ENDBRANCH   5   6
ENDBRANCH   1   5
TORSDOF 3
ENDMDL
MODEL 4
REMARK VINA RESULT:      -6.9      1.307      1.509
REMARK SMILES CC(=O)CCc1ccc2c(c1)OCO2
REMARK SMILES IDX 4 1 2 2 1 3 3 4 5 5 6 6 7 7 11 8 8 9 10 10 9 11 12 12 14 13
REMARK SMILES IDX 13 14
REMARK H PARENT
REMARK Flexibility Score: inf
ROOT
ATOM      1  C   UNL     1       7.252   1.441   0.081  1.00  0.00     0.080 C 
ENDROOT
BRANCH   1   2
ATOM      2  C   UNL     1       6.563   1.489   1.386  1.00  0.00     0.130 C 
ATOM      3  C   UNL     1       5.311   0.726   1.569  1.00  0.00     0.087 C 
ATOM      4  O   UNL     1       7.036   2.150   2.277  1.00  0.00    -0.300 OA
ENDBRANCH   1   2
BRANCH   1   5
ATOM      5  C   UNL     1       6.454   0.647  -0.932  1.00  0.00     0.043 C 
BRANCH   5   6
ATOM      6  C   UNL     1       7.175  -0.570  -1.316  1.00  0.00    -0.044 A 
ATOM      7  C   UNL     1       7.562  -0.767  -2.626  1.00  0.00     0.008 A 
ATOM      8  C   UNL     1       7.491  -1.555  -0.397  1.00  0.00     0.054 A 
ATOM      9  C   UNL     1       8.248  -1.909  -3.031  1.00  0.00     0.051 A 
ATOM     10  C   UNL     1       8.177  -2.708  -0.773  1.00  0.00     0.166 A 
ATOM     11  C   UNL     1       8.550  -2.875  -2.090  1.00  0.00     0.165 A 
ATOM     12  O   UNL     1       8.622  -3.839  -0.090  1.00  0.00    -0.454 OA
ATOM     13  O   UNL     1       9.209  -4.092  -2.191  1.00  0.00    -0.454 OA
ATOM     14  C   UNL     1       9.025  -4.838  -0.991  1.00  0.00     0.468 C 
ENDBRANCH   5   6
ENDBRANCH   1   5
TORSDOF 3
ENDMDL
MODEL 5
REMARK VINA RESULT:      -6.7      1.323      1.940
REMARK SMILES CC(=O)CCc1ccc2c(c1)OCO2
REMARK SMILES IDX 4 1 2 2 1 3 3 4 5 5 6 6 7 7 11 8 8 9 10 10 9 11 12 12 14 13
REMARK SMILES IDX 13 14
REMARK H PARENT
REMARK Flexibility Score: inf
ROOT
ATOM      1  C   UNL     1       6.114  -0.418   2.164  1.00  0.00     0.080 C 
ENDROOT
BRANCH   1   2
ATOM      2  C   UNL     1       5.101   0.598   1.815  1.00  0.00     0.130 C 
ATOM      3  C   UNL     1       5.307   1.441   0.621  1.00  0.00     0.087 C 
ATOM      4  O   UNL     1       4.125   0.719   2.514  1.00  0.00    -0.300 OA
ENDBRANCH   1   2
BRANCH   1   5
ATOM      5  C   UNL     1       7.457  -0.089   1.546  1.00  0.00     0.043 C 
BRANCH   5   6
ATOM      6  C   UNL     1       7.810  -1.077   0.522  1.00  0.00    -0.044 A 
ATOM      7  C   UNL     1       7.662  -0.777  -0.816  1.00  0.00     0.008 A 
ATOM      8  C   UNL     1       8.296  -2.330   0.851  1.00  0.00     0.054 A 
ATOM      9  C   UNL     1       7.984  -1.688  -1.819  1.00  0.00     0.051 A 
ATOM     10  C   UNL     1       8.628  -3.262  -0.130  1.00  0.00     0.166 A 
ATOM     11  C   UNL     1       8.468  -2.932  -1.459  1.00  0.00     0.165 A 
ATOM     12  O   UNL     1       9.126  -4.564  -0.103  1.00  0.00    -0.454 OA
ATOM     13  O   UNL     1       8.866  -4.024  -2.216  1.00  0.00    -0.454 OA
ATOM     14  C   UNL     1       9.028  -5.160  -1.371  1.00  0.00     0.468 C 
ENDBRANCH   5   6
ENDBRANCH   1   5
TORSDOF 3
ENDMDL
