@<TRIPOS>MOLECULE
/home/cewinharhar/GITHUB/reincatalyze/data/processed/docking_pred/2023-May-31-1603_sub9_nm5_bs15_s42_ex16_mel10_mts1000_k50_ec05_g099_lra3e-4_lrc9e-3/dca47ac415302ce9f1313af6aebf6be1e2794cfe_ligand_9.pdbqt
 14 15 0 0 0
SMALL
GASTEIGER

@<TRIPOS>ATOM
      1  C          6.1140   -0.4180    2.1640 C.3     1  UNL1        0.0800
      2  C          5.1010    0.5980    1.8150 C.2     1  UNL1        0.1300
      3  C          5.3070    1.4410    0.6210 C.3     1  UNL1        0.0870
      4  O          4.1250    0.7190    2.5140 O.2     1  UNL1       -0.3000
      5  C          7.4570   -0.0890    1.5460 C.3     1  UNL1        0.0430
      6  C          7.8100   -1.0770    0.5220 C.2     1  UNL1       -0.0440
      7  C          7.6620   -0.7770   -0.8160 C.2     1  UNL1        0.0080
      8  C          8.2960   -2.3300    0.8510 C.2     1  UNL1        0.0540
      9  C          7.9840   -1.6880   -1.8190 C.2     1  UNL1        0.0510
     10  C          8.6280   -3.2620   -0.1300 C.2     1  UNL1        0.1660
     11  C          8.4680   -2.9320   -1.4590 C.2     1  UNL1        0.1650
     12  O          9.1260   -4.5640   -0.1030 O.2     1  UNL1       -0.4540
     13  O          8.8660   -4.0240   -2.2160 O.2     1  UNL1       -0.4540
     14  C          9.0280   -5.1600   -1.3710 C.3     1  UNL1        0.4680
@<TRIPOS>BOND
     1    13    11    1
     2    13    14    1
     3     9    11    2
     4     9     7    1
     5    11    10    1
     6    14    12    1
     7     7     6    2
     8    10    12    1
     9    10     8    2
    10     6     8    1
    11     6     5    1
    12     3     2    1
    13     5     1    1
    14     2     1    1
    15     2     4    2
