@<TRIPOS>MOLECULE
/home/cewinharhar/GITHUB/reincatalyze/data/processed/docking_pred/2023-May-31-1603_sub9_nm5_bs15_s42_ex16_mel10_mts1000_k50_ec05_g099_lra3e-4_lrc9e-3/dca47ac415302ce9f1313af6aebf6be1e2794cfe_ligand_9.pdbqt
 14 15 0 0 0
SMALL
GASTEIGER

@<TRIPOS>ATOM
      1  C          5.8800    1.6180    1.4030 C.3     1  UNL1        0.0800
      2  C          5.3360    0.4360    2.0990 C.2     1  UNL1        0.1300
      3  C          6.2030   -0.7420    2.3050 C.3     1  UNL1        0.0870
      4  O          4.1930    0.4550    2.4860 O.2     1  UNL1       -0.3000
      5  C          5.6490    1.5310   -0.0910 C.3     1  UNL1        0.0430
      6  C          6.7440    0.8040   -0.7400 C.2     1  UNL1       -0.0440
      7  C          8.0350    1.2860   -0.6750 C.2     1  UNL1        0.0080
      8  C          6.5310   -0.3750   -1.4320 C.2     1  UNL1        0.0540
      9  C          9.1030    0.6260   -1.2780 C.2     1  UNL1        0.0510
     10  C          7.5790   -1.0580   -2.0450 C.2     1  UNL1        0.1660
     11  C          8.8590   -0.5500   -1.9630 C.2     1  UNL1        0.1650
     12  O          7.6680   -2.2330   -2.7900 O.2     1  UNL1       -0.4540
     13  O          9.7010   -1.4120   -2.6500 O.2     1  UNL1       -0.4540
     14  C          8.9250   -2.3360   -3.4080 C.3     1  UNL1        0.4680
@<TRIPOS>BOND
     1    14    12    1
     2    14    13    1
     3    12    10    1
     4    13    11    1
     5    10    11    2
     6    10     8    1
     7    11     9    1
     8     8     6    2
     9     9     7    2
    10     6     7    1
    11     6     5    1
    12     5     1    1
    13     1     2    1
    14     2     3    1
    15     2     4    2
