@<TRIPOS>MOLECULE
/home/cewinharhar/GITHUB/reincatalyze/data/processed/docking_pred/2023-May-31-1603_sub9_nm5_bs15_s42_ex16_mel10_mts1000_k50_ec05_g099_lra3e-4_lrc9e-3/dca47ac415302ce9f1313af6aebf6be1e2794cfe_ligand_9.pdbqt
 14 15 0 0 0
SMALL
GASTEIGER

@<TRIPOS>ATOM
      1  C          6.3510    1.1620    1.0180 C.3     1  UNL1        0.0800
      2  C          5.5920    0.3510    1.9920 C.2     1  UNL1        0.1300
      3  C          6.2140   -0.8610    2.5620 C.3     1  UNL1        0.0870
      4  O          4.4780    0.6960    2.3010 O.2     1  UNL1       -0.3000
      5  C          5.8580    0.9270   -0.3940 C.3     1  UNL1        0.0430
      6  C          6.7680    0.0330   -1.1160 C.2     1  UNL1       -0.0440
      7  C          7.3210    0.4240   -2.3180 C.2     1  UNL1        0.0080
      8  C          7.1030   -1.2190   -0.6300 C.2     1  UNL1        0.0540
      9  C          8.1890   -0.3960   -3.0350 C.2     1  UNL1        0.0510
     10  C          7.9680   -2.0600   -1.3250 C.2     1  UNL1        0.1660
     11  C          8.5050   -1.6400   -2.5240 C.2     1  UNL1        0.1650
     12  O          8.4750   -3.3380   -1.0910 O.2     1  UNL1       -0.4540
     13  O          9.3220   -2.6560   -3.0000 O.2     1  UNL1       -0.4540
     14  C          9.1020   -3.8430   -2.2420 C.3     1  UNL1        0.4680
@<TRIPOS>BOND
     1     9    11    2
     2     9     7    1
     3    13    11    1
     4    13    14    1
     5    11    10    1
     6     7     6    2
     7    14    12    1
     8    10    12    1
     9    10     8    2
    10     6     8    1
    11     6     5    1
    12     5     1    1
    13     1     2    1
    14     2     4    2
    15     2     3    1
