@<TRIPOS>MOLECULE
/home/cewinharhar/GITHUB/reincatalyze/data/processed/docking_pred/2023-May-31-1603_sub9_nm5_bs15_s42_ex16_mel10_mts1000_k50_ec05_g099_lra3e-4_lrc9e-3/dca47ac415302ce9f1313af6aebf6be1e2794cfe_ligand_9.pdbqt
 14 15 0 0 0
SMALL
GASTEIGER

@<TRIPOS>ATOM
      1  C          5.6340    0.7700    0.0150 C.3     1  UNL1        0.0800
      2  C          5.8350    1.0400    1.4530 C.2     1  UNL1        0.1300
      3  C          7.0300    1.7920    1.8850 C.3     1  UNL1        0.0870
      4  O          5.0180    0.6400    2.2450 O.2     1  UNL1       -0.3000
      5  C          6.9210    0.9560   -0.7630 C.3     1  UNL1        0.0430
      6  C          7.4680   -0.3420   -1.1700 C.2     1  UNL1       -0.0440
      7  C          7.7090   -0.6100   -2.5010 C.2     1  UNL1        0.0080
      8  C          7.7600   -1.3340   -0.2510 C.2     1  UNL1        0.0540
      9  C          8.2270   -1.8290   -2.9290 C.2     1  UNL1        0.0510
     10  C          8.2800   -2.5640   -0.6480 C.2     1  UNL1        0.1660
     11  C          8.5090   -2.8010   -1.9870 C.2     1  UNL1        0.1650
     12  O          8.6610   -3.7210    0.0290 O.2     1  UNL1       -0.4540
     13  O          9.0210   -4.0850   -2.1070 O.2     1  UNL1       -0.4540
     14  C          8.8700   -4.7780   -0.8720 C.3     1  UNL1        0.4680
@<TRIPOS>BOND
     1     9     7    1
     2     9    11    2
     3     7     6    2
     4    13    11    1
     5    13    14    1
     6    11    10    1
     7     6     5    1
     8     6     8    1
     9    14    12    1
    10     5     1    1
    11    10     8    2
    12    10    12    1
    13     1     2    1
    14     2     3    1
    15     2     4    2
