@<TRIPOS>MOLECULE
/home/cewinharhar/GITHUB/reincatalyze/data/processed/docking_pred/2023-May-31-1603_sub9_nm5_bs15_s42_ex16_mel10_mts1000_k50_ec05_g099_lra3e-4_lrc9e-3/dca47ac415302ce9f1313af6aebf6be1e2794cfe_ligand_9.pdbqt
 14 15 0 0 0
SMALL
GASTEIGER

@<TRIPOS>ATOM
      1  C          7.2520    1.4410    0.0810 C.3     1  UNL1        0.0800
      2  C          6.5630    1.4890    1.3860 C.2     1  UNL1        0.1300
      3  C          5.3110    0.7260    1.5690 C.3     1  UNL1        0.0870
      4  O          7.0360    2.1500    2.2770 O.2     1  UNL1       -0.3000
      5  C          6.4540    0.6470   -0.9320 C.3     1  UNL1        0.0430
      6  C          7.1750   -0.5700   -1.3160 C.2     1  UNL1       -0.0440
      7  C          7.5620   -0.7670   -2.6260 C.2     1  UNL1        0.0080
      8  C          7.4910   -1.5550   -0.3970 C.2     1  UNL1        0.0540
      9  C          8.2480   -1.9090   -3.0310 C.2     1  UNL1        0.0510
     10  C          8.1770   -2.7080   -0.7730 C.2     1  UNL1        0.1660
     11  C          8.5500   -2.8750   -2.0900 C.2     1  UNL1        0.1650
     12  O          8.6220   -3.8390   -0.0900 O.2     1  UNL1       -0.4540
     13  O          9.2090   -4.0920   -2.1910 O.2     1  UNL1       -0.4540
     14  C          9.0250   -4.8380   -0.9910 C.3     1  UNL1        0.4680
@<TRIPOS>BOND
     1     9     7    1
     2     9    11    2
     3     7     6    2
     4    13    11    1
     5    13    14    1
     6    11    10    1
     7     6     5    1
     8     6     8    1
     9    14    12    1
    10     5     1    1
    11    10     8    2
    12    10    12    1
    13     1     2    1
    14     2     3    1
    15     2     4    2
