MODEL 1
REMARK VINA RESULT:      -7.5      0.000      0.000
REMARK SMILES CC(=O)CCc1ccc2c(c1)OCO2
REMARK SMILES IDX 4 1 2 2 1 3 3 4 5 5 6 6 7 7 11 8 8 9 10 10 9 11 12 12 14 13
REMARK SMILES IDX 13 14
REMARK H PARENT
REMARK Flexibility Score: inf
ROOT
ATOM      1  C   UNL     1       5.645   1.793   1.384  1.00  0.00     0.080 C 
ENDROOT
BRANCH   1   2
ATOM      2  C   UNL     1       5.143   0.591   2.080  1.00  0.00     0.130 C 
ATOM      3  C   UNL     1       6.035  -0.574   2.243  1.00  0.00     0.087 C 
ATOM      4  O   UNL     1       4.013   0.587   2.502  1.00  0.00    -0.300 OA
ENDBRANCH   1   2
BRANCH   1   5
ATOM      5  C   UNL     1       5.455   1.679  -0.114  1.00  0.00     0.043 C 
BRANCH   5   6
ATOM      6  C   UNL     1       6.574   0.954  -0.722  1.00  0.00    -0.044 A 
ATOM      7  C   UNL     1       7.867   1.409  -0.564  1.00  0.00     0.008 A 
ATOM      8  C   UNL     1       6.383  -0.196  -1.468  1.00  0.00     0.054 A 
ATOM      9  C   UNL     1       8.957   0.750  -1.126  1.00  0.00     0.051 A 
ATOM     10  C   UNL     1       7.454  -0.876  -2.042  1.00  0.00     0.166 A 
ATOM     11  C   UNL     1       8.735  -0.396  -1.865  1.00  0.00     0.165 A 
ATOM     12  O   UNL     1       7.567  -2.027  -2.822  1.00  0.00    -0.454 OA
ATOM     13  O   UNL     1       9.602  -1.250  -2.532  1.00  0.00    -0.454 OA
ATOM     14  C   UNL     1       8.857  -2.132  -3.368  1.00  0.00     0.468 C 
ENDBRANCH   5   6
ENDBRANCH   1   5
TORSDOF 3
ENDMDL
MODEL 2
REMARK VINA RESULT:      -7.3      1.954      2.372
REMARK SMILES CC(=O)CCc1ccc2c(c1)OCO2
REMARK SMILES IDX 4 1 2 2 1 3 3 4 5 5 6 6 7 7 11 8 8 9 10 10 9 11 12 12 14 13
REMARK SMILES IDX 13 14
REMARK H PARENT
REMARK Flexibility Score: inf
ROOT
ATOM      1  C   UNL     1       5.690   1.204  -0.254  1.00  0.00     0.080 C 
ENDROOT
BRANCH   1   2
ATOM      2  C   UNL     1       5.103   1.208   1.100  1.00  0.00     0.130 C 
ATOM      3  C   UNL     1       5.348   0.060   1.996  1.00  0.00     0.087 C 
ATOM      4  O   UNL     1       4.434   2.150   1.448  1.00  0.00    -0.300 OA
ENDBRANCH   1   2
BRANCH   1   5
ATOM      5  C   UNL     1       7.198   1.079  -0.199  1.00  0.00     0.043 C 
BRANCH   5   6
ATOM      6  C   UNL     1       7.629  -0.205  -0.760  1.00  0.00    -0.044 A 
ATOM      7  C   UNL     1       7.724  -0.371  -2.126  1.00  0.00     0.008 A 
ATOM      8  C   UNL     1       7.953  -1.284   0.044  1.00  0.00     0.054 A 
ATOM      9  C   UNL     1       8.129  -1.574  -2.698  1.00  0.00     0.051 A 
ATOM     10  C   UNL     1       8.361  -2.499  -0.500  1.00  0.00     0.166 A 
ATOM     11  C   UNL     1       8.446  -2.634  -1.870  1.00  0.00     0.165 A 
ATOM     12  O   UNL     1       8.740  -3.727   0.042  1.00  0.00    -0.454 OA
ATOM     13  O   UNL     1       8.870  -3.927  -2.141  1.00  0.00    -0.454 OA
ATOM     14  C   UNL     1       8.800  -4.714  -0.955  1.00  0.00     0.468 C 
ENDBRANCH   5   6
ENDBRANCH   1   5
TORSDOF 3
ENDMDL
MODEL 3
REMARK VINA RESULT:      -7.3      2.067      2.624
REMARK SMILES CC(=O)CCc1ccc2c(c1)OCO2
REMARK SMILES IDX 4 1 2 2 1 3 3 4 5 5 6 6 7 7 11 8 8 9 10 10 9 11 12 12 14 13
REMARK SMILES IDX 13 14
REMARK H PARENT
REMARK Flexibility Score: inf
ROOT
ATOM      1  C   UNL     1       5.398  -0.027   1.990  1.00  0.00     0.080 C 
ENDROOT
BRANCH   1   2
ATOM      2  C   UNL     1       4.538   1.153   1.769  1.00  0.00     0.130 C 
ATOM      3  C   UNL     1       4.901   2.122   0.715  1.00  0.00     0.087 C 
ATOM      4  O   UNL     1       3.557   1.302   2.454  1.00  0.00    -0.300 OA
ENDBRANCH   1   2
BRANCH   1   5
ATOM      5  C   UNL     1       6.830   0.254   1.585  1.00  0.00     0.043 C 
BRANCH   5   6
ATOM      6  C   UNL     1       7.283  -0.720   0.587  1.00  0.00    -0.044 A 
ATOM      7  C   UNL     1       7.107  -0.471  -0.759  1.00  0.00     0.008 A 
ATOM      8  C   UNL     1       7.894  -1.908   0.948  1.00  0.00     0.054 A 
ATOM      9  C   UNL     1       7.522  -1.371  -1.738  1.00  0.00     0.051 A 
ATOM     10  C   UNL     1       8.320  -2.826  -0.009  1.00  0.00     0.166 A 
ATOM     11  C   UNL     1       8.130  -2.549  -1.346  1.00  0.00     0.165 A 
ATOM     12  O   UNL     1       8.948  -4.070   0.051  1.00  0.00    -0.454 OA
ATOM     13  O   UNL     1       8.638  -3.615  -2.075  1.00  0.00    -0.454 OA
ATOM     14  C   UNL     1       8.913  -4.705  -1.201  1.00  0.00     0.468 C 
ENDBRANCH   5   6
ENDBRANCH   1   5
TORSDOF 3
ENDMDL
MODEL 4
REMARK VINA RESULT:      -7.1      1.286      1.498
REMARK SMILES CC(=O)CCc1ccc2c(c1)OCO2
REMARK SMILES IDX 4 1 2 2 1 3 3 4 5 5 6 6 7 7 11 8 8 9 10 10 9 11 12 12 14 13
REMARK SMILES IDX 13 14
REMARK H PARENT
REMARK Flexibility Score: inf
ROOT
ATOM      1  C   UNL     1       6.345   1.208   0.958  1.00  0.00     0.080 C 
ENDROOT
BRANCH   1   2
ATOM      2  C   UNL     1       5.609   0.409   1.958  1.00  0.00     0.130 C 
ATOM      3  C   UNL     1       6.245  -0.796   2.529  1.00  0.00     0.087 C 
ATOM      4  O   UNL     1       4.502   0.757   2.289  1.00  0.00    -0.300 OA
ENDBRANCH   1   2
BRANCH   1   5
ATOM      5  C   UNL     1       5.845   0.928  -0.444  1.00  0.00     0.043 C 
BRANCH   5   6
ATOM      6  C   UNL     1       6.771   0.041  -1.154  1.00  0.00    -0.044 A 
ATOM      7  C   UNL     1       7.356   0.446  -2.336  1.00  0.00     0.008 A 
ATOM      8  C   UNL     1       7.091  -1.218  -0.676  1.00  0.00     0.054 A 
ATOM      9  C   UNL     1       8.240  -0.367  -3.041  1.00  0.00     0.051 A 
ATOM     10  C   UNL     1       7.972  -2.053  -1.359  1.00  0.00     0.166 A 
ATOM     11  C   UNL     1       8.540  -1.619  -2.539  1.00  0.00     0.165 A 
ATOM     12  O   UNL     1       8.470  -3.335  -1.129  1.00  0.00    -0.454 OA
ATOM     13  O   UNL     1       9.366  -2.630  -3.007  1.00  0.00    -0.454 OA
ATOM     14  C   UNL     1       9.124  -3.826  -2.271  1.00  0.00     0.468 C 
ENDBRANCH   5   6
ENDBRANCH   1   5
TORSDOF 3
ENDMDL
MODEL 5
REMARK VINA RESULT:      -7.0      1.957      2.562
REMARK SMILES CC(=O)CCc1ccc2c(c1)OCO2
REMARK SMILES IDX 4 1 2 2 1 3 3 4 5 5 6 6 7 7 11 8 8 9 10 10 9 11 12 12 14 13
REMARK SMILES IDX 13 14
REMARK H PARENT
REMARK Flexibility Score: inf
ROOT
ATOM      1  C   UNL     1       6.726   0.701   0.961  1.00  0.00     0.080 C 
ENDROOT
BRANCH   1   2
ATOM      2  C   UNL     1       5.366   1.028   1.434  1.00  0.00     0.130 C 
ATOM      3  C   UNL     1       4.631   2.142   0.802  1.00  0.00     0.087 C 
ATOM      4  O   UNL     1       4.882   0.377   2.327  1.00  0.00    -0.300 OA
ENDBRANCH   1   2
BRANCH   1   5
ATOM      5  C   UNL     1       6.795   0.698  -0.552  1.00  0.00     0.043 C 
BRANCH   5   6
ATOM      6  C   UNL     1       7.407  -0.542  -1.037  1.00  0.00    -0.044 A 
ATOM      7  C   UNL     1       7.701  -0.696  -2.376  1.00  0.00     0.008 A 
ATOM      8  C   UNL     1       7.710  -1.591  -0.187  1.00  0.00     0.054 A 
ATOM      9  C   UNL     1       8.282  -1.858  -2.877  1.00  0.00     0.051 A 
ATOM     10  C   UNL     1       8.291  -2.765  -0.659  1.00  0.00     0.166 A 
ATOM     11  C   UNL     1       8.573  -2.889  -2.003  1.00  0.00     0.165 A 
ATOM     12  O   UNL     1       8.697  -3.957  -0.059  1.00  0.00    -0.454 OA
ATOM     13  O   UNL     1       9.140  -4.139  -2.203  1.00  0.00    -0.454 OA
ATOM     14  C   UNL     1       8.977  -4.932  -1.030  1.00  0.00     0.468 C 
ENDBRANCH   5   6
ENDBRANCH   1   5
TORSDOF 3
ENDMDL
