@<TRIPOS>MOLECULE
/home/cewinharhar/GITHUB/reincatalyze/data/processed/docking_pred/2023-May-31-1603_sub9_nm5_bs15_s42_ex16_mel10_mts1000_k50_ec05_g099_lra3e-4_lrc9e-3/dcca543849eb83a4cf97fda16a0578d2b97a91da_ligand_9.pdbqt
 14 15 0 0 0
SMALL
GASTEIGER

@<TRIPOS>ATOM
      1  C          5.3980   -0.0270    1.9900 C.3     1  UNL1        0.0800
      2  C          4.5380    1.1530    1.7690 C.2     1  UNL1        0.1300
      3  C          4.9010    2.1220    0.7150 C.3     1  UNL1        0.0870
      4  O          3.5570    1.3020    2.4540 O.2     1  UNL1       -0.3000
      5  C          6.8300    0.2540    1.5850 C.3     1  UNL1        0.0430
      6  C          7.2830   -0.7200    0.5870 C.2     1  UNL1       -0.0440
      7  C          7.1070   -0.4710   -0.7590 C.2     1  UNL1        0.0080
      8  C          7.8940   -1.9080    0.9480 C.2     1  UNL1        0.0540
      9  C          7.5220   -1.3710   -1.7380 C.2     1  UNL1        0.0510
     10  C          8.3200   -2.8260   -0.0090 C.2     1  UNL1        0.1660
     11  C          8.1300   -2.5490   -1.3460 C.2     1  UNL1        0.1650
     12  O          8.9480   -4.0700    0.0510 O.2     1  UNL1       -0.4540
     13  O          8.6380   -3.6150   -2.0750 O.2     1  UNL1       -0.4540
     14  C          8.9130   -4.7050   -1.2010 C.3     1  UNL1        0.4680
@<TRIPOS>BOND
     1    13    11    1
     2    13    14    1
     3     9    11    2
     4     9     7    1
     5    11    10    1
     6    14    12    1
     7     7     6    2
     8    10    12    1
     9    10     8    2
    10     6     8    1
    11     6     5    1
    12     3     2    1
    13     5     1    1
    14     2     1    1
    15     2     4    2
