@<TRIPOS>MOLECULE
/home/cewinharhar/GITHUB/reincatalyze/data/processed/docking_pred/2023-May-31-1603_sub9_nm5_bs15_s42_ex16_mel10_mts1000_k50_ec05_g099_lra3e-4_lrc9e-3/de552809cd3cf8423e47c41d2ed627091c55f56d_ligand_9.pdbqt
 14 15 0 0 0
SMALL
GASTEIGER

@<TRIPOS>ATOM
      1  C          5.5550    1.9000    1.3710 C.3     1  UNL1        0.0800
      2  C          5.0680    0.6830    2.0510 C.2     1  UNL1        0.1300
      3  C          5.9750   -0.4730    2.1960 C.3     1  UNL1        0.0870
      4  O          3.9390    0.6580    2.4750 O.2     1  UNL1       -0.3000
      5  C          5.3970    1.7900   -0.1310 C.3     1  UNL1        0.0430
      6  C          6.5180    1.0470   -0.7140 C.2     1  UNL1       -0.0440
      7  C          7.8160    1.4570   -0.4900 C.2     1  UNL1        0.0080
      8  C          6.3240   -0.0760   -1.4990 C.2     1  UNL1        0.0540
      9  C          8.9080    0.7800   -1.0260 C.2     1  UNL1        0.0510
     10  C          7.3960   -0.7740   -2.0480 C.2     1  UNL1        0.1660
     11  C          8.6830   -0.3390   -1.8060 C.2     1  UNL1        0.1650
     12  O          7.5080   -1.9070   -2.8540 O.2     1  UNL1       -0.4540
     13  O          9.5500   -1.2010   -2.4610 O.2     1  UNL1       -0.4540
     14  C          8.8150   -2.0370   -3.3500 C.3     1  UNL1        0.4680
@<TRIPOS>BOND
     1    14    12    1
     2    14    13    1
     3    12    10    1
     4    13    11    1
     5    10    11    2
     6    10     8    1
     7    11     9    1
     8     8     6    2
     9     9     7    2
    10     6     7    1
    11     6     5    1
    12     5     1    1
    13     1     2    1
    14     2     3    1
    15     2     4    2
