@<TRIPOS>MOLECULE
/home/cewinharhar/GITHUB/reincatalyze/data/processed/docking_pred/2023-May-31-1603_sub9_nm5_bs15_s42_ex16_mel10_mts1000_k50_ec05_g099_lra3e-4_lrc9e-3/de552809cd3cf8423e47c41d2ed627091c55f56d_ligand_9.pdbqt
 14 15 0 0 0
SMALL
GASTEIGER

@<TRIPOS>ATOM
      1  C          6.4320    0.4370   -0.9920 C.3     1  UNL1        0.0800
      2  C          7.1080   -0.4070   -1.9980 C.2     1  UNL1        0.1300
      3  C          8.2830    0.1270   -2.7150 C.3     1  UNL1        0.0870
      4  O          6.6860   -1.5160   -2.2130 O.2     1  UNL1       -0.3000
      5  C          6.5200   -0.1780    0.3890 C.3     1  UNL1        0.0430
      6  C          7.7280    0.2800    1.0810 C.2     1  UNL1       -0.0440
      7  C          7.7040    1.4360    1.8340 C.2     1  UNL1        0.0080
      8  C          8.9220   -0.4160    1.0070 C.2     1  UNL1        0.0540
      9  C          8.8300    1.9050    2.5050 C.2     1  UNL1        0.0510
     10  C         10.0650    0.0290    1.6680 C.2     1  UNL1        0.1660
     11  C         10.0090    1.1880    2.4130 C.2     1  UNL1        0.1650
     12  O         11.3710   -0.4470    1.7750 O.2     1  UNL1       -0.4540
     13  O         11.2670    1.4010    2.9580 O.2     1  UNL1       -0.4540
     14  C         12.2090    0.5250    2.3460 C.3     1  UNL1        0.4680
@<TRIPOS>BOND
     1     3     2    1
     2     4     2    2
     3     2     1    1
     4     1     5    1
     5     5     6    1
     6     8     6    2
     7     8    10    1
     8     6     7    1
     9    10    12    1
    10    10    11    2
    11    12    14    1
    12     7     9    2
    13    14    13    1
    14    11     9    1
    15    11    13    1
