@<TRIPOS>MOLECULE
/home/cewinharhar/GITHUB/reincatalyze/data/processed/docking_pred/2023-May-31-1603_sub9_nm5_bs15_s42_ex16_mel10_mts1000_k50_ec05_g099_lra3e-4_lrc9e-3/de552809cd3cf8423e47c41d2ed627091c55f56d_ligand_9.pdbqt
 14 15 0 0 0
SMALL
GASTEIGER

@<TRIPOS>ATOM
      1  C          5.6410    1.2740   -0.2970 C.3     1  UNL1        0.0800
      2  C          5.0760    1.2470    1.0670 C.2     1  UNL1        0.1300
      3  C          5.4020    0.1180    1.9610 C.3     1  UNL1        0.0870
      4  O          4.3580    2.1490    1.4230 O.2     1  UNL1       -0.3000
      5  C          7.1510    1.1570   -0.2670 C.3     1  UNL1        0.0430
      6  C          7.5800   -0.1200   -0.8460 C.2     1  UNL1       -0.0440
      7  C          7.6050   -0.2910   -2.2140 C.2     1  UNL1        0.0080
      8  C          7.9690   -1.1880   -0.0560 C.2     1  UNL1        0.0540
      9  C          8.0050   -1.4870   -2.8040 C.2     1  UNL1        0.0510
     10  C          8.3740   -2.3970   -0.6170 C.2     1  UNL1        0.1660
     11  C          8.3880   -2.5360   -1.9890 C.2     1  UNL1        0.1650
     12  O          8.8080   -3.6140   -0.0920 O.2     1  UNL1       -0.4540
     13  O          8.8260   -3.8210   -2.2790 O.2     1  UNL1       -0.4540
     14  C          8.8370   -4.6030   -1.0880 C.3     1  UNL1        0.4680
@<TRIPOS>BOND
     1     9     7    1
     2     9    11    2
     3    13    11    1
     4    13    14    1
     5     7     6    2
     6    11    10    1
     7    14    12    1
     8     6     5    1
     9     6     8    1
    10    10    12    1
    11    10     8    2
    12     1     5    1
    13     1     2    1
    14     2     4    2
    15     2     3    1
