@<TRIPOS>MOLECULE
/home/cewinharhar/GITHUB/reincatalyze/data/processed/docking_pred/2023-May-31-1603_sub9_nm5_bs15_s42_ex16_mel10_mts1000_k50_ec05_g099_lra3e-4_lrc9e-3/e1ac879641feb84a16575019a922afe40680d27c_ligand_9.pdbqt
 14 15 0 0 0
SMALL
GASTEIGER

@<TRIPOS>ATOM
      1  C          5.6130    1.8210    1.3410 C.3     1  UNL1        0.0800
      2  C          5.1310    0.6260    2.0630 C.2     1  UNL1        0.1300
      3  C          6.0360   -0.5280    2.2330 C.3     1  UNL1        0.0870
      4  O          4.0060    0.6170    2.4990 O.2     1  UNL1       -0.3000
      5  C          5.4300    1.6690   -0.1550 C.3     1  UNL1        0.0430
      6  C          6.5630    0.9460   -0.7420 C.2     1  UNL1       -0.0440
      7  C          7.8510    1.4100   -0.5670 C.2     1  UNL1        0.0080
      8  C          6.3900   -0.2100   -1.4820 C.2     1  UNL1        0.0540
      9  C          8.9530    0.7540   -1.1080 C.2     1  UNL1        0.0510
     10  C          7.4740   -0.8880   -2.0350 C.2     1  UNL1        0.1660
     11  C          8.7490   -0.3990   -1.8430 C.2     1  UNL1        0.1650
     12  O          7.6060   -2.0430   -2.8060 O.2     1  UNL1       -0.4540
     13  O          9.6310   -1.2520   -2.4910 O.2     1  UNL1       -0.4540
     14  C          8.9040   -2.1440   -3.3310 C.3     1  UNL1        0.4680
@<TRIPOS>BOND
     1    14    12    1
     2    14    13    1
     3    12    10    1
     4    13    11    1
     5    10    11    2
     6    10     8    1
     7    11     9    1
     8     8     6    2
     9     9     7    2
    10     6     7    1
    11     6     5    1
    12     5     1    1
    13     1     2    1
    14     2     3    1
    15     2     4    2
