@<TRIPOS>MOLECULE
/home/cewinharhar/GITHUB/reincatalyze/data/processed/docking_pred/2023-May-31-1603_sub9_nm5_bs15_s42_ex16_mel10_mts1000_k50_ec05_g099_lra3e-4_lrc9e-3/e3e0f9713a2c6d1770d60d03407d62bfa70f046f_ligand_9.pdbqt
 14 15 0 0 0
SMALL
GASTEIGER

@<TRIPOS>ATOM
      1  C          5.3390   -0.0460    2.0040 C.3     1  UNL1        0.0800
      2  C          4.5060    1.1510    1.7720 C.2     1  UNL1        0.1300
      3  C          4.8910    2.1020    0.7100 C.3     1  UNL1        0.0870
      4  O          3.5270    1.3270    2.4540 O.2     1  UNL1       -0.3000
      5  C          6.7880    0.2160    1.6460 C.3     1  UNL1        0.0430
      6  C          7.2500   -0.7420    0.6370 C.2     1  UNL1       -0.0440
      7  C          7.0590   -0.4870   -0.7050 C.2     1  UNL1        0.0080
      8  C          7.8850   -1.9210    0.9840 C.2     1  UNL1        0.0540
      9  C          7.4820   -1.3700   -1.6940 C.2     1  UNL1        0.0510
     10  C          8.3200   -2.8250    0.0170 C.2     1  UNL1        0.1660
     11  C          8.1140   -2.5400   -1.3170 C.2     1  UNL1        0.1650
     12  O          8.9710   -4.0570    0.0620 O.2     1  UNL1       -0.4540
     13  O          8.6350   -3.5910   -2.0580 O.2     1  UNL1       -0.4540
     14  C          8.9380   -4.6830   -1.1940 C.3     1  UNL1        0.4680
@<TRIPOS>BOND
     1    13    11    1
     2    13    14    1
     3     9    11    2
     4     9     7    1
     5    11    10    1
     6    14    12    1
     7     7     6    2
     8    10    12    1
     9    10     8    2
    10     6     8    1
    11     6     5    1
    12     3     2    1
    13     5     1    1
    14     2     1    1
    15     2     4    2
