MODEL 1
REMARK VINA RESULT:      -7.6      0.000      0.000
REMARK SMILES CC(=O)CCc1ccc2c(c1)OCO2
REMARK SMILES IDX 4 1 2 2 1 3 3 4 5 5 6 6 7 7 11 8 8 9 10 10 9 11 12 12 14 13
REMARK SMILES IDX 13 14
REMARK H PARENT
REMARK Flexibility Score: inf
ROOT
ATOM      1  C   UNL     1       5.574   1.864   1.302  1.00  0.00     0.080 C 
ENDROOT
BRANCH   1   2
ATOM      2  C   UNL     1       5.107   0.675   2.041  1.00  0.00     0.130 C 
ATOM      3  C   UNL     1       6.023  -0.470   2.217  1.00  0.00     0.087 C 
ATOM      4  O   UNL     1       3.986   0.662   2.486  1.00  0.00    -0.300 OA
ENDBRANCH   1   2
BRANCH   1   5
ATOM      5  C   UNL     1       5.397   1.687  -0.192  1.00  0.00     0.043 C 
BRANCH   5   6
ATOM      6  C   UNL     1       6.537   0.964  -0.764  1.00  0.00    -0.044 A 
ATOM      7  C   UNL     1       7.823   1.424  -0.568  1.00  0.00     0.008 A 
ATOM      8  C   UNL     1       6.373  -0.190  -1.510  1.00  0.00     0.054 A 
ATOM      9  C   UNL     1       8.932   0.768  -1.095  1.00  0.00     0.051 A 
ATOM     10  C   UNL     1       7.463  -0.868  -2.049  1.00  0.00     0.166 A 
ATOM     11  C   UNL     1       8.737  -0.382  -1.836  1.00  0.00     0.165 A 
ATOM     12  O   UNL     1       7.605  -2.021  -2.821  1.00  0.00    -0.454 OA
ATOM     13  O   UNL     1       9.626  -1.235  -2.473  1.00  0.00    -0.454 OA
ATOM     14  C   UNL     1       8.911  -2.124  -3.327  1.00  0.00     0.468 C 
ENDBRANCH   5   6
ENDBRANCH   1   5
TORSDOF 3
ENDMDL
MODEL 2
REMARK VINA RESULT:      -7.4      1.903      2.360
REMARK SMILES CC(=O)CCc1ccc2c(c1)OCO2
REMARK SMILES IDX 4 1 2 2 1 3 3 4 5 5 6 6 7 7 11 8 8 9 10 10 9 11 12 12 14 13
REMARK SMILES IDX 13 14
REMARK H PARENT
REMARK Flexibility Score: inf
ROOT
ATOM      1  C   UNL     1       5.699   1.197  -0.315  1.00  0.00     0.080 C 
ENDROOT
BRANCH   1   2
ATOM      2  C   UNL     1       5.111   1.227   1.040  1.00  0.00     0.130 C 
ATOM      3  C   UNL     1       5.415   0.131   1.982  1.00  0.00     0.087 C 
ATOM      4  O   UNL     1       4.395   2.146   1.349  1.00  0.00    -0.300 OA
ENDBRANCH   1   2
BRANCH   1   5
ATOM      5  C   UNL     1       7.207   1.069  -0.256  1.00  0.00     0.043 C 
BRANCH   5   6
ATOM      6  C   UNL     1       7.639  -0.207  -0.833  1.00  0.00    -0.044 A 
ATOM      7  C   UNL     1       7.708  -0.365  -2.202  1.00  0.00     0.008 A 
ATOM      8  C   UNL     1       7.987  -1.288  -0.042  1.00  0.00     0.054 A 
ATOM      9  C   UNL     1       8.112  -1.560  -2.790  1.00  0.00     0.051 A 
ATOM     10  C   UNL     1       8.396  -2.496  -0.602  1.00  0.00     0.166 A 
ATOM     11  C   UNL     1       8.455  -2.622  -1.974  1.00  0.00     0.165 A 
ATOM     12  O   UNL     1       8.797  -3.724  -0.075  1.00  0.00    -0.454 OA
ATOM     13  O   UNL     1       8.885  -3.909  -2.262  1.00  0.00    -0.454 OA
ATOM     14  C   UNL     1       8.846  -4.704  -1.079  1.00  0.00     0.468 C 
ENDBRANCH   5   6
ENDBRANCH   1   5
TORSDOF 3
ENDMDL
MODEL 3
REMARK VINA RESULT:      -7.4      2.053      2.641
REMARK SMILES CC(=O)CCc1ccc2c(c1)OCO2
REMARK SMILES IDX 4 1 2 2 1 3 3 4 5 5 6 6 7 7 11 8 8 9 10 10 9 11 12 12 14 13
REMARK SMILES IDX 13 14
REMARK H PARENT
REMARK Flexibility Score: inf
ROOT
ATOM      1  C   UNL     1       5.339  -0.046   2.004  1.00  0.00     0.080 C 
ENDROOT
BRANCH   1   2
ATOM      2  C   UNL     1       4.506   1.151   1.772  1.00  0.00     0.130 C 
ATOM      3  C   UNL     1       4.891   2.102   0.710  1.00  0.00     0.087 C 
ATOM      4  O   UNL     1       3.527   1.327   2.454  1.00  0.00    -0.300 OA
ENDBRANCH   1   2
BRANCH   1   5
ATOM      5  C   UNL     1       6.788   0.216   1.646  1.00  0.00     0.043 C 
BRANCH   5   6
ATOM      6  C   UNL     1       7.250  -0.742   0.637  1.00  0.00    -0.044 A 
ATOM      7  C   UNL     1       7.059  -0.487  -0.705  1.00  0.00     0.008 A 
ATOM      8  C   UNL     1       7.885  -1.921   0.984  1.00  0.00     0.054 A 
ATOM      9  C   UNL     1       7.482  -1.370  -1.694  1.00  0.00     0.051 A 
ATOM     10  C   UNL     1       8.320  -2.825   0.017  1.00  0.00     0.166 A 
ATOM     11  C   UNL     1       8.114  -2.540  -1.317  1.00  0.00     0.165 A 
ATOM     12  O   UNL     1       8.971  -4.057   0.062  1.00  0.00    -0.454 OA
ATOM     13  O   UNL     1       8.635  -3.591  -2.058  1.00  0.00    -0.454 OA
ATOM     14  C   UNL     1       8.938  -4.683  -1.194  1.00  0.00     0.468 C 
ENDBRANCH   5   6
ENDBRANCH   1   5
TORSDOF 3
ENDMDL
MODEL 4
REMARK VINA RESULT:      -7.1      1.208      1.360
REMARK SMILES CC(=O)CCc1ccc2c(c1)OCO2
REMARK SMILES IDX 4 1 2 2 1 3 3 4 5 5 6 6 7 7 11 8 8 9 10 10 9 11 12 12 14 13
REMARK SMILES IDX 13 14
REMARK H PARENT
REMARK Flexibility Score: inf
ROOT
ATOM      1  C   UNL     1       6.231   1.340   0.937  1.00  0.00     0.080 C 
ENDROOT
BRANCH   1   2
ATOM      2  C   UNL     1       5.554   0.496   1.942  1.00  0.00     0.130 C 
ATOM      3  C   UNL     1       6.271  -0.662   2.512  1.00  0.00     0.087 C 
ATOM      4  O   UNL     1       4.428   0.770   2.278  1.00  0.00    -0.300 OA
ENDBRANCH   1   2
BRANCH   1   5
ATOM      5  C   UNL     1       5.738   1.031  -0.461  1.00  0.00     0.043 C 
BRANCH   5   6
ATOM      6  C   UNL     1       6.695   0.174  -1.167  1.00  0.00    -0.044 A 
ATOM      7  C   UNL     1       7.369   0.647  -2.274  1.00  0.00     0.008 A 
ATOM      8  C   UNL     1       6.956  -1.123  -0.760  1.00  0.00     0.054 A 
ATOM      9  C   UNL     1       8.285  -0.134  -2.972  1.00  0.00     0.051 A 
ATOM     10  C   UNL     1       7.868  -1.928  -1.439  1.00  0.00     0.166 A 
ATOM     11  C   UNL     1       8.526  -1.425  -2.542  1.00  0.00     0.165 A 
ATOM     12  O   UNL     1       8.324  -3.235  -1.268  1.00  0.00    -0.454 OA
ATOM     13  O   UNL     1       9.364  -2.421  -3.023  1.00  0.00    -0.454 OA
ATOM     14  C   UNL     1       9.048  -3.659  -2.394  1.00  0.00     0.468 C 
ENDBRANCH   5   6
ENDBRANCH   1   5
TORSDOF 3
ENDMDL
MODEL 5
REMARK VINA RESULT:      -7.0      1.226      5.165
REMARK SMILES CC(=O)CCc1ccc2c(c1)OCO2
REMARK SMILES IDX 4 1 2 2 1 3 3 4 5 5 6 6 7 7 11 8 8 9 10 10 9 11 12 12 14 13
REMARK SMILES IDX 13 14
REMARK H PARENT
REMARK Flexibility Score: inf
ROOT
ATOM      1  C   UNL     1       8.264   0.160  -2.705  1.00  0.00     0.080 C 
ENDROOT
BRANCH   1   2
ATOM      2  C   UNL     1       7.985  -1.288  -2.771  1.00  0.00     0.130 C 
ATOM      3  C   UNL     1       9.102  -2.228  -2.997  1.00  0.00     0.087 C 
ATOM      4  O   UNL     1       6.850  -1.675  -2.639  1.00  0.00    -0.300 OA
ENDBRANCH   1   2
BRANCH   1   5
ATOM      5  C   UNL     1       8.842   0.548  -1.360  1.00  0.00     0.043 C 
BRANCH   5   6
ATOM      6  C   UNL     1       7.822   0.443  -0.312  1.00  0.00    -0.044 A 
ATOM      7  C   UNL     1       7.887  -0.567   0.625  1.00  0.00     0.008 A 
ATOM      8  C   UNL     1       6.770   1.338  -0.223  1.00  0.00     0.054 A 
ATOM      9  C   UNL     1       6.938  -0.701   1.635  1.00  0.00     0.051 A 
ATOM     10  C   UNL     1       5.806   1.228   0.776  1.00  0.00     0.166 A 
ATOM     11  C   UNL     1       5.899   0.207   1.699  1.00  0.00     0.165 A 
ATOM     12  O   UNL     1       4.665   1.959   1.109  1.00  0.00    -0.454 OA
ATOM     13  O   UNL     1       4.827   0.327   2.571  1.00  0.00    -0.454 OA
ATOM     14  C   UNL     1       3.888   1.266   2.052  1.00  0.00     0.468 C 
ENDBRANCH   5   6
ENDBRANCH   1   5
TORSDOF 3
ENDMDL
