@<TRIPOS>MOLECULE
/home/cewinharhar/GITHUB/reincatalyze/data/processed/docking_pred/2023-May-31-1603_sub9_nm5_bs15_s42_ex16_mel10_mts1000_k50_ec05_g099_lra3e-4_lrc9e-3/e3e0f9713a2c6d1770d60d03407d62bfa70f046f_ligand_9.pdbqt
 14 15 0 0 0
SMALL
GASTEIGER

@<TRIPOS>ATOM
      1  C          5.5740    1.8640    1.3020 C.3     1  UNL1        0.0800
      2  C          5.1070    0.6750    2.0410 C.2     1  UNL1        0.1300
      3  C          6.0230   -0.4700    2.2170 C.3     1  UNL1        0.0870
      4  O          3.9860    0.6620    2.4860 O.2     1  UNL1       -0.3000
      5  C          5.3970    1.6870   -0.1920 C.3     1  UNL1        0.0430
      6  C          6.5370    0.9640   -0.7640 C.2     1  UNL1       -0.0440
      7  C          7.8230    1.4240   -0.5680 C.2     1  UNL1        0.0080
      8  C          6.3730   -0.1900   -1.5100 C.2     1  UNL1        0.0540
      9  C          8.9320    0.7680   -1.0950 C.2     1  UNL1        0.0510
     10  C          7.4630   -0.8680   -2.0490 C.2     1  UNL1        0.1660
     11  C          8.7370   -0.3820   -1.8360 C.2     1  UNL1        0.1650
     12  O          7.6050   -2.0210   -2.8210 O.2     1  UNL1       -0.4540
     13  O          9.6260   -1.2350   -2.4730 O.2     1  UNL1       -0.4540
     14  C          8.9110   -2.1240   -3.3270 C.3     1  UNL1        0.4680
@<TRIPOS>BOND
     1    14    12    1
     2    14    13    1
     3    12    10    1
     4    13    11    1
     5    10    11    2
     6    10     8    1
     7    11     9    1
     8     8     6    2
     9     9     7    2
    10     6     7    1
    11     6     5    1
    12     5     1    1
    13     1     2    1
    14     2     3    1
    15     2     4    2
