@<TRIPOS>MOLECULE
/home/cewinharhar/GITHUB/reincatalyze/data/processed/docking_pred/2023-May-31-1603_sub9_nm5_bs15_s42_ex16_mel10_mts1000_k50_ec05_g099_lra3e-4_lrc9e-3/e3fbdfe9b196bdc40f83d7817e536621cd4b8c1b_ligand_9.pdbqt
 14 15 0 0 0
SMALL
GASTEIGER

@<TRIPOS>ATOM
      1  C          6.5550    1.2780    0.4010 C.3     1  UNL1        0.0800
      2  C          5.3820    1.1610    1.2890 C.2     1  UNL1        0.1300
      3  C          5.2350   -0.0410    2.1340 C.3     1  UNL1        0.0870
      4  O          4.5660    2.0500    1.3060 O.2     1  UNL1       -0.3000
      5  C          6.2180    0.8560   -1.0140 C.3     1  UNL1        0.0430
      6  C          6.9830   -0.3360   -1.3920 C.2     1  UNL1       -0.0440
      7  C          7.3680   -0.5290   -2.7030 C.2     1  UNL1        0.0080
      8  C          7.3430   -1.2990   -0.4660 C.2     1  UNL1        0.0540
      9  C          8.0950   -1.6480   -3.1030 C.2     1  UNL1        0.0510
     10  C          8.0700   -2.4280   -0.8370 C.2     1  UNL1        0.1660
     11  C          8.4410   -2.5930   -2.1550 C.2     1  UNL1        0.1650
     12  O          8.5630   -3.5350   -0.1470 O.2     1  UNL1       -0.4540
     13  O          9.1460   -3.7840   -2.2510 O.2     1  UNL1       -0.4540
     14  C          8.9990   -4.5250   -1.0430 C.3     1  UNL1        0.4680
@<TRIPOS>BOND
     1     9     7    1
     2     9    11    2
     3     7     6    2
     4    13    11    1
     5    13    14    1
     6    11    10    1
     7     6     5    1
     8     6     8    1
     9    14    12    1
    10     5     1    1
    11    10     8    2
    12    10    12    1
    13     1     2    1
    14     2     4    2
    15     2     3    1
