@<TRIPOS>MOLECULE
/home/cewinharhar/GITHUB/reincatalyze/data/processed/docking_pred/2023-May-31-1603_sub9_nm5_bs15_s42_ex16_mel10_mts1000_k50_ec05_g099_lra3e-4_lrc9e-3/e3fbdfe9b196bdc40f83d7817e536621cd4b8c1b_ligand_9.pdbqt
 14 15 0 0 0
SMALL
GASTEIGER

@<TRIPOS>ATOM
      1  C          5.3630   -0.0320    1.9880 C.3     1  UNL1        0.0800
      2  C          4.5280    1.1650    1.7670 C.2     1  UNL1        0.1300
      3  C          4.9080    2.1230    0.7100 C.3     1  UNL1        0.0870
      4  O          3.5520    1.3360    2.4550 O.2     1  UNL1       -0.3000
      5  C          6.8080    0.2300    1.6180 C.3     1  UNL1        0.0430
      6  C          7.2660   -0.7360    0.6150 C.2     1  UNL1       -0.0440
      7  C          7.0860   -0.4830   -0.7290 C.2     1  UNL1        0.0080
      8  C          7.8870   -1.9210    0.9690 C.2     1  UNL1        0.0540
      9  C          7.5050   -1.3740   -1.7130 C.2     1  UNL1        0.0510
     10  C          8.3180   -2.8320    0.0080 C.2     1  UNL1        0.1660
     11  C          8.1220   -2.5500   -1.3280 C.2     1  UNL1        0.1650
     12  O          8.9550   -4.0710    0.0610 O.2     1  UNL1       -0.4540
     13  O          8.6370   -3.6080   -2.0630 O.2     1  UNL1       -0.4540
     14  C          8.9230   -4.7010   -1.1940 C.3     1  UNL1        0.4680
@<TRIPOS>BOND
     1    13    11    1
     2    13    14    1
     3     9    11    2
     4     9     7    1
     5    11    10    1
     6    14    12    1
     7     7     6    2
     8    10    12    1
     9    10     8    2
    10     6     8    1
    11     6     5    1
    12     3     2    1
    13     5     1    1
    14     2     1    1
    15     2     4    2
