@<TRIPOS>MOLECULE
/home/cewinharhar/GITHUB/reincatalyze/data/processed/docking_pred/2023-May-31-1603_sub9_nm5_bs15_s42_ex16_mel10_mts1000_k50_ec05_g099_lra3e-4_lrc9e-3/e4036567ae6c7c824a0e93db279f74886267d276_ligand_9.pdbqt
 14 15 0 0 0
SMALL
GASTEIGER

@<TRIPOS>ATOM
      1  C          5.4930   -0.0080    1.7690 C.3     1  UNL1        0.0800
      2  C          4.6610    1.1900    1.5410 C.2     1  UNL1        0.1300
      3  C          5.0360    2.1350    0.4690 C.3     1  UNL1        0.0870
      4  O          3.6920    1.3740    2.2350 O.2     1  UNL1       -0.3000
      5  C          6.9360    0.2450    1.3860 C.3     1  UNL1        0.0430
      6  C          7.4010   -0.7670    0.4330 C.2     1  UNL1       -0.0440
      7  C          7.2960   -0.5460   -0.9250 C.2     1  UNL1        0.0080
      8  C          7.9550   -1.9650    0.8490 C.2     1  UNL1        0.0540
      9  C          7.7250   -1.4810   -1.8620 C.2     1  UNL1        0.0510
     10  C          8.3930   -2.9200   -0.0660 C.2     1  UNL1        0.1660
     11  C          8.2730   -2.6690   -1.4170 C.2     1  UNL1        0.1650
     12  O          8.9750   -4.1820    0.0520 O.2     1  UNL1       -0.4540
     13  O          8.7780   -3.7680   -2.0970 O.2     1  UNL1       -0.4540
     14  C          8.9760   -4.8460   -1.1860 C.3     1  UNL1        0.4680
@<TRIPOS>BOND
     1    13    11    1
     2    13    14    1
     3     9    11    2
     4     9     7    1
     5    11    10    1
     6    14    12    1
     7     7     6    2
     8    10    12    1
     9    10     8    2
    10     6     8    1
    11     6     5    1
    12     3     2    1
    13     5     1    1
    14     2     1    1
    15     2     4    2
