@<TRIPOS>MOLECULE
/home/cewinharhar/GITHUB/reincatalyze/data/processed/docking_pred/2023-May-31-1603_sub9_nm5_bs15_s42_ex16_mel10_mts1000_k50_ec05_g099_lra3e-4_lrc9e-3/e4036567ae6c7c824a0e93db279f74886267d276_ligand_9.pdbqt
 14 15 0 0 0
SMALL
GASTEIGER

@<TRIPOS>ATOM
      1  C          6.3010    1.2630    0.9760 C.3     1  UNL1        0.0800
      2  C          5.5960    0.4300    1.9710 C.2     1  UNL1        0.1300
      3  C          6.2780   -0.7530    2.5340 C.3     1  UNL1        0.0870
      4  O          4.4760    0.7320    2.3030 O.2     1  UNL1       -0.3000
      5  C          5.7970    0.9890   -0.4260 C.3     1  UNL1        0.0430
      6  C          6.7280    0.1140   -1.1450 C.2     1  UNL1       -0.0440
      7  C          7.3550    0.5560   -2.2910 C.2     1  UNL1        0.0080
      8  C          7.0090   -1.1700   -0.7110 C.2     1  UNL1        0.0540
      9  C          8.2440   -0.2440   -3.0040 C.2     1  UNL1        0.0510
     10  C          7.8950   -1.9930   -1.4030 C.2     1  UNL1        0.1660
     11  C          8.5060   -1.5210   -2.5460 C.2     1  UNL1        0.1650
     12  O          8.3620   -3.2930   -1.2130 O.2     1  UNL1       -0.4540
     13  O          9.3270   -2.5290   -3.0320 O.2     1  UNL1       -0.4540
     14  C          9.0410   -3.7490   -2.3550 C.3     1  UNL1        0.4680
@<TRIPOS>BOND
     1    13    11    1
     2    13    14    1
     3     9    11    2
     4     9     7    1
     5    11    10    1
     6    14    12    1
     7     7     6    2
     8    10    12    1
     9    10     8    2
    10     6     8    1
    11     6     5    1
    12     5     1    1
    13     1     2    1
    14     2     4    2
    15     2     3    1
