@<TRIPOS>MOLECULE
/home/cewinharhar/GITHUB/reincatalyze/data/processed/docking_pred/2023-May-31-1603_sub9_nm5_bs15_s42_ex16_mel10_mts1000_k50_ec05_g099_lra3e-4_lrc9e-3/e4036567ae6c7c824a0e93db279f74886267d276_ligand_9.pdbqt
 14 15 0 0 0
SMALL
GASTEIGER

@<TRIPOS>ATOM
      1  C          6.7870    0.7140    0.8180 C.3     1  UNL1        0.0800
      2  C          5.4660    1.0400    1.3920 C.2     1  UNL1        0.1300
      3  C          4.6830    2.1500    0.8120 C.3     1  UNL1        0.0870
      4  O          5.0530    0.3930    2.3230 O.2     1  UNL1       -0.3000
      5  C          6.7150    0.5890   -0.6890 C.3     1  UNL1        0.0430
      6  C          7.3790   -0.6390   -1.1360 C.2     1  UNL1       -0.0440
      7  C          7.7360   -0.7960   -2.4600 C.2     1  UNL1        0.0080
      8  C          7.6700   -1.6740   -0.2640 C.2     1  UNL1        0.0540
      9  C          8.3670   -1.9470   -2.9240 C.2     1  UNL1        0.0510
     10  C          8.3000   -2.8370   -0.7000 C.2     1  UNL1        0.1660
     11  C          8.6450   -2.9630   -2.0300 C.2     1  UNL1        0.1650
     12  O          8.7090   -4.0130   -0.0720 O.2     1  UNL1       -0.4540
     13  O          9.2510   -4.2000   -2.1930 O.2     1  UNL1       -0.4540
     14  C          9.0560   -4.9880   -1.0220 C.3     1  UNL1        0.4680
@<TRIPOS>BOND
     1     9     7    1
     2     9    11    2
     3     7     6    2
     4    13    11    1
     5    13    14    1
     6    11    10    1
     7     6     5    1
     8     6     8    1
     9    14    12    1
    10    10     8    2
    11    10    12    1
    12     5     1    1
    13     3     2    1
    14     1     2    1
    15     2     4    2
