@<TRIPOS>MOLECULE
/home/cewinharhar/GITHUB/reincatalyze/data/processed/docking_pred/2023-May-31-1603_sub9_nm5_bs15_s42_ex16_mel10_mts1000_k50_ec05_g099_lra3e-4_lrc9e-3/e5153a6a2872aa0f73be7da8df97a591d10f8a10_ligand_9.pdbqt
 14 15 0 0 0
SMALL
GASTEIGER

@<TRIPOS>ATOM
      1  C          8.2370    0.1780   -2.6840 C.3     1  UNL1        0.0800
      2  C          7.9750   -1.2730   -2.7590 C.2     1  UNL1        0.1300
      3  C          9.1030   -2.1980   -2.9890 C.3     1  UNL1        0.0870
      4  O          6.8450   -1.6740   -2.6300 O.2     1  UNL1       -0.3000
      5  C          8.8080    0.5640   -1.3350 C.3     1  UNL1        0.0430
      6  C          7.7800    0.4680   -0.2950 C.2     1  UNL1       -0.0440
      7  C          7.8340   -0.5380    0.6470 C.2     1  UNL1        0.0080
      8  C          6.7300    1.3670   -0.2170 C.2     1  UNL1        0.0540
      9  C          6.8770   -0.6650    1.6510 C.2     1  UNL1        0.0510
     10  C          5.7590    1.2660    0.7760 C.2     1  UNL1        0.1660
     11  C          5.8410    0.2480    1.7030 C.2     1  UNL1        0.1650
     12  O          4.6190    2.0030    1.0970 O.2     1  UNL1       -0.4540
     13  O          4.7630    0.3760    2.5670 O.2     1  UNL1       -0.4540
     14  C          3.8320    1.3160    2.0370 C.3     1  UNL1        0.4680
@<TRIPOS>BOND
     1     3     2    1
     2     2     1    1
     3     2     4    2
     4     1     5    1
     5     5     6    1
     6     6     8    2
     7     6     7    1
     8     8    10    1
     9     7     9    2
    10    10    12    1
    11    10    11    2
    12    12    14    1
    13     9    11    1
    14    11    13    1
    15    14    13    1
