@<TRIPOS>MOLECULE
/home/cewinharhar/GITHUB/reincatalyze/data/processed/docking_pred/2023-May-31-1603_sub9_nm5_bs15_s42_ex16_mel10_mts1000_k50_ec05_g099_lra3e-4_lrc9e-3/e5153a6a2872aa0f73be7da8df97a591d10f8a10_ligand_9.pdbqt
 14 15 0 0 0
SMALL
GASTEIGER

@<TRIPOS>ATOM
      1  C          5.6640    1.8050    1.3970 C.3     1  UNL1        0.0800
      2  C          5.1590    0.6000    2.0850 C.2     1  UNL1        0.1300
      3  C          6.0580   -0.5580    2.2620 C.3     1  UNL1        0.0870
      4  O          4.0230    0.5860    2.4890 O.2     1  UNL1       -0.3000
      5  C          5.4700    1.7030   -0.1020 C.3     1  UNL1        0.0430
      6  C          6.5820    0.9710   -0.7160 C.2     1  UNL1       -0.0440
      7  C          7.8790    1.4150   -0.5620 C.2     1  UNL1        0.0080
      8  C          6.3800   -0.1760   -1.4630 C.2     1  UNL1        0.0540
      9  C          8.9620    0.7500   -1.1290 C.2     1  UNL1        0.0510
     10  C          7.4430   -0.8640   -2.0430 C.2     1  UNL1        0.1660
     11  C          8.7280   -0.3940   -1.8700 C.2     1  UNL1        0.1650
     12  O          7.5450   -2.0140   -2.8250 O.2     1  UNL1       -0.4540
     13  O          9.5860   -1.2530   -2.5420 O.2     1  UNL1       -0.4540
     14  C          8.8320   -2.1280   -3.3760 C.3     1  UNL1        0.4680
@<TRIPOS>BOND
     1    14    12    1
     2    14    13    1
     3    12    10    1
     4    13    11    1
     5    10    11    2
     6    10     8    1
     7    11     9    1
     8     8     6    2
     9     9     7    2
    10     6     7    1
    11     6     5    1
    12     5     1    1
    13     1     2    1
    14     2     3    1
    15     2     4    2
