@<TRIPOS>MOLECULE
/home/cewinharhar/GITHUB/reincatalyze/data/processed/docking_pred/2023-May-31-1603_sub9_nm5_bs15_s42_ex16_mel10_mts1000_k50_ec05_g099_lra3e-4_lrc9e-3/e69dee760b6a4f483691253cffcee702e9155e2b_ligand_9.pdbqt
 14 15 0 0 0
SMALL
GASTEIGER

@<TRIPOS>ATOM
      1  C          5.3770   -0.0360    1.9640 C.3     1  UNL1        0.0800
      2  C          4.5410    1.1640    1.7580 C.2     1  UNL1        0.1300
      3  C          4.9260    2.1400    0.7190 C.3     1  UNL1        0.0870
      4  O          3.5600    1.3210    2.4410 O.2     1  UNL1       -0.3000
      5  C          6.8200    0.2300    1.5890 C.3     1  UNL1        0.0430
      6  C          7.2760   -0.7340    0.5830 C.2     1  UNL1       -0.0440
      7  C          7.1060   -0.4720   -0.7600 C.2     1  UNL1        0.0080
      8  C          7.8840   -1.9270    0.9350 C.2     1  UNL1        0.0540
      9  C          7.5250   -1.3620   -1.7470 C.2     1  UNL1        0.0510
     10  C          8.3130   -2.8360   -0.0290 C.2     1  UNL1        0.1660
     11  C          8.1290   -2.5440   -1.3650 C.2     1  UNL1        0.1650
     12  O          8.9390   -4.0810    0.0210 O.2     1  UNL1       -0.4540
     13  O          8.6390   -3.6030   -2.1030 O.2     1  UNL1       -0.4540
     14  C          8.9100   -4.7030   -1.2380 C.3     1  UNL1        0.4680
@<TRIPOS>BOND
     1    13    11    1
     2    13    14    1
     3     9    11    2
     4     9     7    1
     5    11    10    1
     6    14    12    1
     7     7     6    2
     8    10    12    1
     9    10     8    2
    10     6     8    1
    11     6     5    1
    12     3     2    1
    13     5     1    1
    14     2     1    1
    15     2     4    2
