@<TRIPOS>MOLECULE
/home/cewinharhar/GITHUB/reincatalyze/data/processed/docking_pred/2023-May-31-1603_sub9_nm5_bs15_s42_ex16_mel10_mts1000_k50_ec05_g099_lra3e-4_lrc9e-3/e69dee760b6a4f483691253cffcee702e9155e2b_ligand_9.pdbqt
 14 15 0 0 0
SMALL
GASTEIGER

@<TRIPOS>ATOM
      1  C          6.6700    0.6080    1.4000 C.3     1  UNL1        0.0800
      2  C          5.2710    1.0680    1.5020 C.2     1  UNL1        0.1300
      3  C          4.7730    2.0800    0.5490 C.3     1  UNL1        0.0870
      4  O          4.5620    0.6070    2.3630 O.2     1  UNL1       -0.3000
      5  C          7.2290    0.8560    0.0140 C.3     1  UNL1        0.0430
      6  C          7.6450   -0.4040   -0.6070 C.2     1  UNL1       -0.0440
      7  C          7.6700   -0.5290   -1.9810 C.2     1  UNL1        0.0080
      8  C          8.0230   -1.5020    0.1460 C.2     1  UNL1        0.0540
      9  C          8.0570   -1.7090   -2.6100 C.2     1  UNL1        0.0510
     10  C          8.4160   -2.6960   -0.4550 C.2     1  UNL1        0.1660
     11  C          8.4290   -2.7890   -1.8320 C.2     1  UNL1        0.1650
     12  O          8.8370   -3.9340    0.0290 O.2     1  UNL1       -0.4540
     13  O          8.8540   -4.0670   -2.1640 O.2     1  UNL1       -0.4540
     14  C          8.8560   -4.8890   -1.0000 C.3     1  UNL1        0.4680
@<TRIPOS>BOND
     1     9     7    1
     2     9    11    2
     3    13    11    1
     4    13    14    1
     5     7     6    2
     6    11    10    1
     7    14    12    1
     8     6     5    1
     9     6     8    1
    10    10    12    1
    11    10     8    2
    12     5     1    1
    13     3     2    1
    14     1     2    1
    15     2     4    2
