MODEL 1
REMARK VINA RESULT:      -7.5      0.000      0.000
REMARK SMILES CC(=O)CCc1ccc2c(c1)OCO2
REMARK SMILES IDX 4 1 2 2 1 3 3 4 5 5 6 6 7 7 11 8 8 9 10 10 9 11 12 12 14 13
REMARK SMILES IDX 13 14
REMARK H PARENT
REMARK Flexibility Score: inf
ROOT
ATOM      1  C   UNL     1       5.706   1.807   1.419  1.00  0.00     0.080 C 
ENDROOT
BRANCH   1   2
ATOM      2  C   UNL     1       5.193   0.596   2.092  1.00  0.00     0.130 C 
ATOM      3  C   UNL     1       6.089  -0.565   2.268  1.00  0.00     0.087 C 
ATOM      4  O   UNL     1       4.053   0.580   2.484  1.00  0.00    -0.300 OA
ENDBRANCH   1   2
BRANCH   1   5
ATOM      5  C   UNL     1       5.514   1.724  -0.081  1.00  0.00     0.043 C 
BRANCH   5   6
ATOM      6  C   UNL     1       6.617   0.985  -0.702  1.00  0.00    -0.044 A 
ATOM      7  C   UNL     1       7.917   1.422  -0.556  1.00  0.00     0.008 A 
ATOM      8  C   UNL     1       6.402  -0.162  -1.446  1.00  0.00     0.054 A 
ATOM      9  C   UNL     1       8.992   0.749  -1.131  1.00  0.00     0.051 A 
ATOM     10  C   UNL     1       7.458  -0.856  -2.032  1.00  0.00     0.166 A 
ATOM     11  C   UNL     1       8.747  -0.393  -1.869  1.00  0.00     0.165 A 
ATOM     12  O   UNL     1       7.548  -2.007  -2.814  1.00  0.00    -0.454 OA
ATOM     13  O   UNL     1       9.595  -1.258  -2.546  1.00  0.00    -0.454 OA
ATOM     14  C   UNL     1       8.830  -2.129  -3.374  1.00  0.00     0.468 C 
ENDBRANCH   5   6
ENDBRANCH   1   5
TORSDOF 3
ENDMDL
MODEL 2
REMARK VINA RESULT:      -7.3      1.914      2.365
REMARK SMILES CC(=O)CCc1ccc2c(c1)OCO2
REMARK SMILES IDX 4 1 2 2 1 3 3 4 5 5 6 6 7 7 11 8 8 9 10 10 9 11 12 12 14 13
REMARK SMILES IDX 13 14
REMARK H PARENT
REMARK Flexibility Score: inf
ROOT
ATOM      1  C   UNL     1       5.699   1.197  -0.315  1.00  0.00     0.080 C 
ENDROOT
BRANCH   1   2
ATOM      2  C   UNL     1       5.111   1.227   1.040  1.00  0.00     0.130 C 
ATOM      3  C   UNL     1       5.415   0.131   1.982  1.00  0.00     0.087 C 
ATOM      4  O   UNL     1       4.395   2.146   1.349  1.00  0.00    -0.300 OA
ENDBRANCH   1   2
BRANCH   1   5
ATOM      5  C   UNL     1       7.207   1.069  -0.256  1.00  0.00     0.043 C 
BRANCH   5   6
ATOM      6  C   UNL     1       7.639  -0.207  -0.833  1.00  0.00    -0.044 A 
ATOM      7  C   UNL     1       7.708  -0.365  -2.202  1.00  0.00     0.008 A 
ATOM      8  C   UNL     1       7.987  -1.288  -0.042  1.00  0.00     0.054 A 
ATOM      9  C   UNL     1       8.112  -1.560  -2.790  1.00  0.00     0.051 A 
ATOM     10  C   UNL     1       8.396  -2.496  -0.602  1.00  0.00     0.166 A 
ATOM     11  C   UNL     1       8.455  -2.622  -1.974  1.00  0.00     0.165 A 
ATOM     12  O   UNL     1       8.797  -3.724  -0.075  1.00  0.00    -0.454 OA
ATOM     13  O   UNL     1       8.885  -3.909  -2.262  1.00  0.00    -0.454 OA
ATOM     14  C   UNL     1       8.846  -4.704  -1.079  1.00  0.00     0.468 C 
ENDBRANCH   5   6
ENDBRANCH   1   5
TORSDOF 3
ENDMDL
MODEL 3
REMARK VINA RESULT:      -7.3      2.062      2.626
REMARK SMILES CC(=O)CCc1ccc2c(c1)OCO2
REMARK SMILES IDX 4 1 2 2 1 3 3 4 5 5 6 6 7 7 11 8 8 9 10 10 9 11 12 12 14 13
REMARK SMILES IDX 13 14
REMARK H PARENT
REMARK Flexibility Score: inf
ROOT
ATOM      1  C   UNL     1       5.377  -0.036   1.964  1.00  0.00     0.080 C 
ENDROOT
BRANCH   1   2
ATOM      2  C   UNL     1       4.541   1.164   1.758  1.00  0.00     0.130 C 
ATOM      3  C   UNL     1       4.926   2.140   0.719  1.00  0.00     0.087 C 
ATOM      4  O   UNL     1       3.560   1.321   2.441  1.00  0.00    -0.300 OA
ENDBRANCH   1   2
BRANCH   1   5
ATOM      5  C   UNL     1       6.820   0.230   1.589  1.00  0.00     0.043 C 
BRANCH   5   6
ATOM      6  C   UNL     1       7.276  -0.734   0.583  1.00  0.00    -0.044 A 
ATOM      7  C   UNL     1       7.106  -0.472  -0.760  1.00  0.00     0.008 A 
ATOM      8  C   UNL     1       7.884  -1.927   0.935  1.00  0.00     0.054 A 
ATOM      9  C   UNL     1       7.525  -1.362  -1.747  1.00  0.00     0.051 A 
ATOM     10  C   UNL     1       8.313  -2.836  -0.029  1.00  0.00     0.166 A 
ATOM     11  C   UNL     1       8.129  -2.544  -1.365  1.00  0.00     0.165 A 
ATOM     12  O   UNL     1       8.939  -4.081   0.021  1.00  0.00    -0.454 OA
ATOM     13  O   UNL     1       8.639  -3.603  -2.103  1.00  0.00    -0.454 OA
ATOM     14  C   UNL     1       8.910  -4.703  -1.238  1.00  0.00     0.468 C 
ENDBRANCH   5   6
ENDBRANCH   1   5
TORSDOF 3
ENDMDL
MODEL 4
REMARK VINA RESULT:      -7.1      1.276      1.480
REMARK SMILES CC(=O)CCc1ccc2c(c1)OCO2
REMARK SMILES IDX 4 1 2 2 1 3 3 4 5 5 6 6 7 7 11 8 8 9 10 10 9 11 12 12 14 13
REMARK SMILES IDX 13 14
REMARK H PARENT
REMARK Flexibility Score: inf
ROOT
ATOM      1  C   UNL     1       6.312   1.249   0.970  1.00  0.00     0.080 C 
ENDROOT
BRANCH   1   2
ATOM      2  C   UNL     1       5.589   0.430   1.963  1.00  0.00     0.130 C 
ATOM      3  C   UNL     1       6.245  -0.769   2.523  1.00  0.00     0.087 C 
ATOM      4  O   UNL     1       4.477   0.757   2.298  1.00  0.00    -0.300 OA
ENDBRANCH   1   2
BRANCH   1   5
ATOM      5  C   UNL     1       5.816   0.973  -0.434  1.00  0.00     0.043 C 
BRANCH   5   6
ATOM      6  C   UNL     1       6.740   0.081  -1.141  1.00  0.00    -0.044 A 
ATOM      7  C   UNL     1       7.324   0.480  -2.325  1.00  0.00     0.008 A 
ATOM      8  C   UNL     1       7.059  -1.175  -0.657  1.00  0.00     0.054 A 
ATOM      9  C   UNL     1       8.206  -0.337  -3.027  1.00  0.00     0.051 A 
ATOM     10  C   UNL     1       7.938  -2.015  -1.337  1.00  0.00     0.166 A 
ATOM     11  C   UNL     1       8.505  -1.587  -2.519  1.00  0.00     0.165 A 
ATOM     12  O   UNL     1       8.434  -3.297  -1.101  1.00  0.00    -0.454 OA
ATOM     13  O   UNL     1       9.330  -2.602  -2.983  1.00  0.00    -0.454 OA
ATOM     14  C   UNL     1       9.087  -3.794  -2.240  1.00  0.00     0.468 C 
ENDBRANCH   5   6
ENDBRANCH   1   5
TORSDOF 3
ENDMDL
MODEL 5
REMARK VINA RESULT:      -7.1      2.023      2.556
REMARK SMILES CC(=O)CCc1ccc2c(c1)OCO2
REMARK SMILES IDX 4 1 2 2 1 3 3 4 5 5 6 6 7 7 11 8 8 9 10 10 9 11 12 12 14 13
REMARK SMILES IDX 13 14
REMARK H PARENT
REMARK Flexibility Score: inf
ROOT
ATOM      1  C   UNL     1       6.670   0.608   1.400  1.00  0.00     0.080 C 
ENDROOT
BRANCH   1   2
ATOM      2  C   UNL     1       5.271   1.068   1.502  1.00  0.00     0.130 C 
ATOM      3  C   UNL     1       4.773   2.080   0.549  1.00  0.00     0.087 C 
ATOM      4  O   UNL     1       4.562   0.607   2.363  1.00  0.00    -0.300 OA
ENDBRANCH   1   2
BRANCH   1   5
ATOM      5  C   UNL     1       7.229   0.856   0.014  1.00  0.00     0.043 C 
BRANCH   5   6
ATOM      6  C   UNL     1       7.645  -0.404  -0.607  1.00  0.00    -0.044 A 
ATOM      7  C   UNL     1       7.670  -0.529  -1.981  1.00  0.00     0.008 A 
ATOM      8  C   UNL     1       8.023  -1.502   0.146  1.00  0.00     0.054 A 
ATOM      9  C   UNL     1       8.057  -1.709  -2.610  1.00  0.00     0.051 A 
ATOM     10  C   UNL     1       8.416  -2.696  -0.455  1.00  0.00     0.166 A 
ATOM     11  C   UNL     1       8.429  -2.789  -1.832  1.00  0.00     0.165 A 
ATOM     12  O   UNL     1       8.837  -3.934   0.029  1.00  0.00    -0.454 OA
ATOM     13  O   UNL     1       8.854  -4.067  -2.164  1.00  0.00    -0.454 OA
ATOM     14  C   UNL     1       8.856  -4.889  -1.000  1.00  0.00     0.468 C 
ENDBRANCH   5   6
ENDBRANCH   1   5
TORSDOF 3
ENDMDL
