@<TRIPOS>MOLECULE
/home/cewinharhar/GITHUB/reincatalyze/data/processed/docking_pred/2023-May-31-1603_sub9_nm5_bs15_s42_ex16_mel10_mts1000_k50_ec05_g099_lra3e-4_lrc9e-3/e72dfb9ce69b60d9dd63e32278a4acfac8a78322_ligand_9.pdbqt
 14 15 0 0 0
SMALL
GASTEIGER

@<TRIPOS>ATOM
      1  C          5.2970   -0.0920    1.9590 C.3     1  UNL1        0.0800
      2  C          4.4780    1.1200    1.7520 C.2     1  UNL1        0.1300
      3  C          4.8590    2.0740    0.6900 C.3     1  UNL1        0.0870
      4  O          3.5150    1.3050    2.4540 O.2     1  UNL1       -0.3000
      5  C          6.7540    0.1690    1.6390 C.3     1  UNL1        0.0430
      6  C          7.2360   -0.7750    0.6270 C.2     1  UNL1       -0.0440
      7  C          7.0980   -0.4880   -0.7160 C.2     1  UNL1        0.0080
      8  C          7.8380   -1.9730    0.9700 C.2     1  UNL1        0.0540
      9  C          7.5410   -1.3580   -1.7080 C.2     1  UNL1        0.0510
     10  C          8.2920   -2.8630   -0.0000 C.2     1  UNL1        0.1660
     11  C          8.1390   -2.5470   -1.3340 C.2     1  UNL1        0.1650
     12  O          8.9200   -4.1080    0.0420 O.2     1  UNL1       -0.4540
     13  O          8.6690   -3.5910   -2.0790 O.2     1  UNL1       -0.4540
     14  C          8.9210   -4.7060   -1.2290 C.3     1  UNL1        0.4680
@<TRIPOS>BOND
     1    13    11    1
     2    13    14    1
     3     9    11    2
     4     9     7    1
     5    11    10    1
     6    14    12    1
     7     7     6    2
     8    10    12    1
     9    10     8    2
    10     6     8    1
    11     6     5    1
    12     3     2    1
    13     5     1    1
    14     2     1    1
    15     2     4    2
