@<TRIPOS>MOLECULE
/home/cewinharhar/GITHUB/reincatalyze/data/processed/docking_pred/2023-May-31-1603_sub9_nm5_bs15_s42_ex16_mel10_mts1000_k50_ec05_g099_lra3e-4_lrc9e-3/e8fc6854485d68a8d0bf78bf523603f1a9cbeca9_ligand_9.pdbqt
 14 15 0 0 0
SMALL
GASTEIGER

@<TRIPOS>ATOM
      1  C          6.2890    1.2660    0.9410 C.3     1  UNL1        0.0800
      2  C          5.6030    0.4310    1.9470 C.2     1  UNL1        0.1300
      3  C          6.2930   -0.7570    2.4880 C.3     1  UNL1        0.0870
      4  O          4.4930    0.7370    2.3070 O.2     1  UNL1       -0.3000
      5  C          5.7860    0.9660   -0.4560 C.3     1  UNL1        0.0430
      6  C          6.7340    0.1050   -1.1700 C.2     1  UNL1       -0.0440
      7  C          7.3910    0.5710   -2.2900 C.2     1  UNL1        0.0080
      8  C          7.0030   -1.1880   -0.7570 C.2     1  UNL1        0.0540
      9  C          8.2980   -0.2150   -2.9970 C.2     1  UNL1        0.0510
     10  C          7.9050   -1.9980   -1.4430 C.2     1  UNL1        0.1660
     11  C          8.5460   -1.5030   -2.5600 C.2     1  UNL1        0.1650
     12  O          8.3660   -3.3030   -1.2690 O.2     1  UNL1       -0.4540
     13  O          9.3790   -2.5010   -3.0460 O.2     1  UNL1       -0.4540
     14  C          9.0740   -3.7350   -2.4030 C.3     1  UNL1        0.4680
@<TRIPOS>BOND
     1    13    11    1
     2    13    14    1
     3     9    11    2
     4     9     7    1
     5    11    10    1
     6    14    12    1
     7     7     6    2
     8    10    12    1
     9    10     8    2
    10     6     8    1
    11     6     5    1
    12     5     1    1
    13     1     2    1
    14     2     4    2
    15     2     3    1
