@<TRIPOS>MOLECULE
/home/cewinharhar/GITHUB/reincatalyze/data/processed/docking_pred/2023-May-31-1603_sub9_nm5_bs15_s42_ex16_mel10_mts1000_k50_ec05_g099_lra3e-4_lrc9e-3/e8fc6854485d68a8d0bf78bf523603f1a9cbeca9_ligand_9.pdbqt
 14 15 0 0 0
SMALL
GASTEIGER

@<TRIPOS>ATOM
      1  C          5.6260    1.8060    1.3580 C.3     1  UNL1        0.0800
      2  C          5.1360    0.6100    2.0730 C.2     1  UNL1        0.1300
      3  C          6.0380   -0.5450    2.2490 C.3     1  UNL1        0.0870
      4  O          4.0070    0.6020    2.4980 O.2     1  UNL1       -0.3000
      5  C          5.4390    1.6660   -0.1380 C.3     1  UNL1        0.0430
      6  C          6.5670    0.9440   -0.7340 C.2     1  UNL1       -0.0440
      7  C          7.8560    1.4070   -0.5660 C.2     1  UNL1        0.0080
      8  C          6.3890   -0.2100   -1.4760 C.2     1  UNL1        0.0540
      9  C          8.9550    0.7510   -1.1160 C.2     1  UNL1        0.0510
     10  C          7.4690   -0.8870   -2.0380 C.2     1  UNL1        0.1660
     11  C          8.7450   -0.3990   -1.8520 C.2     1  UNL1        0.1650
     12  O          7.5950   -2.0410   -2.8110 O.2     1  UNL1       -0.4540
     13  O          9.6230   -1.2510   -2.5080 O.2     1  UNL1       -0.4540
     14  C          8.8900   -2.1410   -3.3450 C.3     1  UNL1        0.4680
@<TRIPOS>BOND
     1    14    12    1
     2    14    13    1
     3    12    10    1
     4    13    11    1
     5    10    11    2
     6    10     8    1
     7    11     9    1
     8     8     6    2
     9     9     7    2
    10     6     7    1
    11     6     5    1
    12     5     1    1
    13     1     2    1
    14     2     3    1
    15     2     4    2
