@<TRIPOS>MOLECULE
/home/cewinharhar/GITHUB/reincatalyze/data/processed/docking_pred/2023-May-31-1603_sub9_nm5_bs15_s42_ex16_mel10_mts1000_k50_ec05_g099_lra3e-4_lrc9e-3/e8fc6854485d68a8d0bf78bf523603f1a9cbeca9_ligand_9.pdbqt
 14 15 0 0 0
SMALL
GASTEIGER

@<TRIPOS>ATOM
      1  C          5.6890    1.1110   -0.2870 C.3     1  UNL1        0.0800
      2  C          5.1890    1.1610    1.1010 C.2     1  UNL1        0.1300
      3  C          5.4120    0.0030    1.9900 C.3     1  UNL1        0.0870
      4  O          4.6080    2.1480    1.4810 O.2     1  UNL1       -0.3000
      5  C          7.2020    1.0380   -0.3240 C.3     1  UNL1        0.0430
      6  C          7.6420   -0.2590   -0.8450 C.2     1  UNL1       -0.0440
      7  C          7.7530   -0.4620   -2.2050 C.2     1  UNL1        0.0080
      8  C          7.9580   -1.3160   -0.0090 C.2     1  UNL1        0.0540
      9  C          8.1670   -1.6790   -2.7410 C.2     1  UNL1        0.0510
     10  C          8.3750   -2.5440   -0.5150 C.2     1  UNL1        0.1660
     11  C          8.4760   -2.7150   -1.8800 C.2     1  UNL1        0.1650
     12  O          8.7510   -3.7560    0.0640 O.2     1  UNL1       -0.4540
     13  O          8.9070   -4.0140   -2.1130 O.2     1  UNL1       -0.4540
     14  C          8.8250   -4.7690   -0.9070 C.3     1  UNL1        0.4680
@<TRIPOS>BOND
     1     9     7    1
     2     9    11    2
     3     7     6    2
     4    13    11    1
     5    13    14    1
     6    11    10    1
     7    14    12    1
     8     6     5    1
     9     6     8    1
    10    10     8    2
    11    10    12    1
    12     5     1    1
    13     1     2    1
    14     2     4    2
    15     2     3    1
