@<TRIPOS>MOLECULE
/home/cewinharhar/GITHUB/reincatalyze/data/processed/docking_pred/2023-May-31-1603_sub9_nm5_bs15_s42_ex16_mel10_mts1000_k50_ec05_g099_lra3e-4_lrc9e-3/e8fc6854485d68a8d0bf78bf523603f1a9cbeca9_ligand_9.pdbqt
 14 15 0 0 0
SMALL
GASTEIGER

@<TRIPOS>ATOM
      1  C          6.8300    0.7190    0.7990 C.3     1  UNL1        0.0800
      2  C          5.5060    1.1350    1.3030 C.2     1  UNL1        0.1300
      3  C          4.7360    2.1500    0.5570 C.3     1  UNL1        0.0870
      4  O          5.0800    0.6360    2.3160 O.2     1  UNL1       -0.3000
      5  C          6.8610    0.7070   -0.7160 C.3     1  UNL1        0.0430
      6  C          7.5050   -0.5150   -1.2070 C.2     1  UNL1       -0.0440
      7  C          7.8970   -0.6130   -2.5270 C.2     1  UNL1        0.0080
      8  C          7.7420   -1.6010   -0.3830 C.2     1  UNL1        0.0540
      9  C          8.5100   -1.7560   -3.0330 C.2     1  UNL1        0.0510
     10  C          8.3540   -2.7570   -0.8610 C.2     1  UNL1        0.1660
     11  C          8.7330   -2.8240   -2.1860 C.2     1  UNL1        0.1650
     12  O          8.7120   -3.9750   -0.2850 O.2     1  UNL1       -0.4540
     13  O          9.3110   -4.0680   -2.3960 O.2     1  UNL1       -0.4540
     14  C          9.0610   -4.9090   -1.2740 C.3     1  UNL1        0.4680
@<TRIPOS>BOND
     1     9     7    1
     2     9    11    2
     3     7     6    2
     4    13    11    1
     5    13    14    1
     6    11    10    1
     7    14    12    1
     8     6     5    1
     9     6     8    1
    10    10     8    2
    11    10    12    1
    12     5     1    1
    13     3     2    1
    14     1     2    1
    15     2     4    2
