MODEL 1
REMARK VINA RESULT:      -7.5      0.000      0.000
REMARK SMILES CC(=O)CCc1ccc2c(c1)OCO2
REMARK SMILES IDX 4 1 2 2 1 3 3 4 5 5 6 6 7 7 11 8 8 9 10 10 9 11 12 12 14 13
REMARK SMILES IDX 13 14
REMARK H PARENT
REMARK Flexibility Score: inf
ROOT
ATOM      1  C   UNL     1       5.626   1.806   1.358  1.00  0.00     0.080 C 
ENDROOT
BRANCH   1   2
ATOM      2  C   UNL     1       5.136   0.610   2.073  1.00  0.00     0.130 C 
ATOM      3  C   UNL     1       6.038  -0.545   2.249  1.00  0.00     0.087 C 
ATOM      4  O   UNL     1       4.007   0.602   2.498  1.00  0.00    -0.300 OA
ENDBRANCH   1   2
BRANCH   1   5
ATOM      5  C   UNL     1       5.439   1.666  -0.138  1.00  0.00     0.043 C 
BRANCH   5   6
ATOM      6  C   UNL     1       6.567   0.944  -0.734  1.00  0.00    -0.044 A 
ATOM      7  C   UNL     1       7.856   1.407  -0.566  1.00  0.00     0.008 A 
ATOM      8  C   UNL     1       6.389  -0.210  -1.476  1.00  0.00     0.054 A 
ATOM      9  C   UNL     1       8.955   0.751  -1.116  1.00  0.00     0.051 A 
ATOM     10  C   UNL     1       7.469  -0.887  -2.038  1.00  0.00     0.166 A 
ATOM     11  C   UNL     1       8.745  -0.399  -1.852  1.00  0.00     0.165 A 
ATOM     12  O   UNL     1       7.595  -2.041  -2.811  1.00  0.00    -0.454 OA
ATOM     13  O   UNL     1       9.623  -1.251  -2.508  1.00  0.00    -0.454 OA
ATOM     14  C   UNL     1       8.890  -2.141  -3.345  1.00  0.00     0.468 C 
ENDBRANCH   5   6
ENDBRANCH   1   5
TORSDOF 3
ENDMDL
MODEL 2
REMARK VINA RESULT:      -7.3      1.958      2.411
REMARK SMILES CC(=O)CCc1ccc2c(c1)OCO2
REMARK SMILES IDX 4 1 2 2 1 3 3 4 5 5 6 6 7 7 11 8 8 9 10 10 9 11 12 12 14 13
REMARK SMILES IDX 13 14
REMARK H PARENT
REMARK Flexibility Score: inf
ROOT
ATOM      1  C   UNL     1       5.689   1.111  -0.287  1.00  0.00     0.080 C 
ENDROOT
BRANCH   1   2
ATOM      2  C   UNL     1       5.189   1.161   1.101  1.00  0.00     0.130 C 
ATOM      3  C   UNL     1       5.412   0.003   1.990  1.00  0.00     0.087 C 
ATOM      4  O   UNL     1       4.608   2.148   1.481  1.00  0.00    -0.300 OA
ENDBRANCH   1   2
BRANCH   1   5
ATOM      5  C   UNL     1       7.202   1.038  -0.324  1.00  0.00     0.043 C 
BRANCH   5   6
ATOM      6  C   UNL     1       7.642  -0.259  -0.845  1.00  0.00    -0.044 A 
ATOM      7  C   UNL     1       7.753  -0.462  -2.205  1.00  0.00     0.008 A 
ATOM      8  C   UNL     1       7.958  -1.316  -0.009  1.00  0.00     0.054 A 
ATOM      9  C   UNL     1       8.167  -1.679  -2.741  1.00  0.00     0.051 A 
ATOM     10  C   UNL     1       8.375  -2.544  -0.515  1.00  0.00     0.166 A 
ATOM     11  C   UNL     1       8.476  -2.715  -1.880  1.00  0.00     0.165 A 
ATOM     12  O   UNL     1       8.751  -3.756   0.064  1.00  0.00    -0.454 OA
ATOM     13  O   UNL     1       8.907  -4.014  -2.113  1.00  0.00    -0.454 OA
ATOM     14  C   UNL     1       8.825  -4.769  -0.907  1.00  0.00     0.468 C 
ENDBRANCH   5   6
ENDBRANCH   1   5
TORSDOF 3
ENDMDL
MODEL 3
REMARK VINA RESULT:      -7.3      2.049      2.628
REMARK SMILES CC(=O)CCc1ccc2c(c1)OCO2
REMARK SMILES IDX 4 1 2 2 1 3 3 4 5 5 6 6 7 7 11 8 8 9 10 10 9 11 12 12 14 13
REMARK SMILES IDX 13 14
REMARK H PARENT
REMARK Flexibility Score: inf
ROOT
ATOM      1  C   UNL     1       5.340  -0.045   1.983  1.00  0.00     0.080 C 
ENDROOT
BRANCH   1   2
ATOM      2  C   UNL     1       4.520   1.164   1.766  1.00  0.00     0.130 C 
ATOM      3  C   UNL     1       4.914   2.123   0.715  1.00  0.00     0.087 C 
ATOM      4  O   UNL     1       3.544   1.343   2.453  1.00  0.00    -0.300 OA
ENDBRANCH   1   2
BRANCH   1   5
ATOM      5  C   UNL     1       6.793   0.208   1.638  1.00  0.00     0.043 C 
BRANCH   5   6
ATOM      6  C   UNL     1       7.256  -0.749   0.628  1.00  0.00    -0.044 A 
ATOM      7  C   UNL     1       7.080  -0.484  -0.715  1.00  0.00     0.008 A 
ATOM      8  C   UNL     1       7.876  -1.936   0.974  1.00  0.00     0.054 A 
ATOM      9  C   UNL     1       7.504  -1.366  -1.705  1.00  0.00     0.051 A 
ATOM     10  C   UNL     1       8.312  -2.838   0.006  1.00  0.00     0.166 A 
ATOM     11  C   UNL     1       8.121  -2.544  -1.328  1.00  0.00     0.165 A 
ATOM     12  O   UNL     1       8.950  -4.077   0.050  1.00  0.00    -0.454 OA
ATOM     13  O   UNL     1       8.640  -3.595  -2.070  1.00  0.00    -0.454 OA
ATOM     14  C   UNL     1       8.923  -4.696  -1.210  1.00  0.00     0.468 C 
ENDBRANCH   5   6
ENDBRANCH   1   5
TORSDOF 3
ENDMDL
MODEL 4
REMARK VINA RESULT:      -7.1      1.227      1.398
REMARK SMILES CC(=O)CCc1ccc2c(c1)OCO2
REMARK SMILES IDX 4 1 2 2 1 3 3 4 5 5 6 6 7 7 11 8 8 9 10 10 9 11 12 12 14 13
REMARK SMILES IDX 13 14
REMARK H PARENT
REMARK Flexibility Score: inf
ROOT
ATOM      1  C   UNL     1       6.289   1.266   0.941  1.00  0.00     0.080 C 
ENDROOT
BRANCH   1   2
ATOM      2  C   UNL     1       5.603   0.431   1.947  1.00  0.00     0.130 C 
ATOM      3  C   UNL     1       6.293  -0.757   2.488  1.00  0.00     0.087 C 
ATOM      4  O   UNL     1       4.493   0.737   2.307  1.00  0.00    -0.300 OA
ENDBRANCH   1   2
BRANCH   1   5
ATOM      5  C   UNL     1       5.786   0.966  -0.456  1.00  0.00     0.043 C 
BRANCH   5   6
ATOM      6  C   UNL     1       6.734   0.105  -1.170  1.00  0.00    -0.044 A 
ATOM      7  C   UNL     1       7.391   0.571  -2.290  1.00  0.00     0.008 A 
ATOM      8  C   UNL     1       7.003  -1.188  -0.757  1.00  0.00     0.054 A 
ATOM      9  C   UNL     1       8.298  -0.215  -2.997  1.00  0.00     0.051 A 
ATOM     10  C   UNL     1       7.905  -1.998  -1.443  1.00  0.00     0.166 A 
ATOM     11  C   UNL     1       8.546  -1.503  -2.560  1.00  0.00     0.165 A 
ATOM     12  O   UNL     1       8.366  -3.303  -1.269  1.00  0.00    -0.454 OA
ATOM     13  O   UNL     1       9.379  -2.501  -3.046  1.00  0.00    -0.454 OA
ATOM     14  C   UNL     1       9.074  -3.735  -2.403  1.00  0.00     0.468 C 
ENDBRANCH   5   6
ENDBRANCH   1   5
TORSDOF 3
ENDMDL
MODEL 5
REMARK VINA RESULT:      -6.9      1.863      2.529
REMARK SMILES CC(=O)CCc1ccc2c(c1)OCO2
REMARK SMILES IDX 4 1 2 2 1 3 3 4 5 5 6 6 7 7 11 8 8 9 10 10 9 11 12 12 14 13
REMARK SMILES IDX 13 14
REMARK H PARENT
REMARK Flexibility Score: inf
ROOT
ATOM      1  C   UNL     1       6.830   0.719   0.799  1.00  0.00     0.080 C 
ENDROOT
BRANCH   1   2
ATOM      2  C   UNL     1       5.506   1.135   1.303  1.00  0.00     0.130 C 
ATOM      3  C   UNL     1       4.736   2.150   0.557  1.00  0.00     0.087 C 
ATOM      4  O   UNL     1       5.080   0.636   2.316  1.00  0.00    -0.300 OA
ENDBRANCH   1   2
BRANCH   1   5
ATOM      5  C   UNL     1       6.861   0.707  -0.716  1.00  0.00     0.043 C 
BRANCH   5   6
ATOM      6  C   UNL     1       7.505  -0.515  -1.207  1.00  0.00    -0.044 A 
ATOM      7  C   UNL     1       7.897  -0.613  -2.527  1.00  0.00     0.008 A 
ATOM      8  C   UNL     1       7.742  -1.601  -0.383  1.00  0.00     0.054 A 
ATOM      9  C   UNL     1       8.510  -1.756  -3.033  1.00  0.00     0.051 A 
ATOM     10  C   UNL     1       8.354  -2.757  -0.861  1.00  0.00     0.166 A 
ATOM     11  C   UNL     1       8.733  -2.824  -2.186  1.00  0.00     0.165 A 
ATOM     12  O   UNL     1       8.712  -3.975  -0.285  1.00  0.00    -0.454 OA
ATOM     13  O   UNL     1       9.311  -4.068  -2.396  1.00  0.00    -0.454 OA
ATOM     14  C   UNL     1       9.061  -4.909  -1.274  1.00  0.00     0.468 C 
ENDBRANCH   5   6
ENDBRANCH   1   5
TORSDOF 3
ENDMDL
