@<TRIPOS>MOLECULE
/home/cewinharhar/GITHUB/reincatalyze/data/processed/docking_pred/2023-May-31-1603_sub9_nm5_bs15_s42_ex16_mel10_mts1000_k50_ec05_g099_lra3e-4_lrc9e-3/e9ca5ba4bc0452251e134010a3e53239cf47eed8_ligand_9.pdbqt
 14 15 0 0 0
SMALL
GASTEIGER

@<TRIPOS>ATOM
      1  C          6.7440    1.5400    0.1600 C.3     1  UNL1        0.0800
      2  C          5.9540    1.3110    1.3860 C.2     1  UNL1        0.1300
      3  C          6.4150    0.3030    2.3620 C.3     1  UNL1        0.0870
      4  O          4.9490    1.9520    1.5660 O.2     1  UNL1       -0.3000
      5  C          6.1240    0.8390   -1.0310 C.3     1  UNL1        0.0430
      6  C          6.9540   -0.2940   -1.4520 C.2     1  UNL1       -0.0440
      7  C          7.4570   -0.3510   -2.7350 C.2     1  UNL1        0.0080
      8  C          7.2600   -1.3350   -0.5940 C.2     1  UNL1        0.0540
      9  C          8.2480   -1.4090   -3.1740 C.2     1  UNL1        0.0510
     10  C          8.0490   -2.4080   -1.0040 C.2     1  UNL1        0.1660
     11  C          8.5370   -2.4350   -2.2940 C.2     1  UNL1        0.1650
     12  O          8.5120   -3.5660   -0.3810 O.2     1  UNL1       -0.4540
     13  O          9.2820   -3.5970   -2.4390 O.2     1  UNL1       -0.4540
     14  C          9.0520   -4.4550   -1.3250 C.3     1  UNL1        0.4680
@<TRIPOS>BOND
     1     9     7    1
     2     9    11    2
     3     7     6    2
     4    13    11    1
     5    13    14    1
     6    11    10    1
     7     6     5    1
     8     6     8    1
     9    14    12    1
    10     5     1    1
    11    10     8    2
    12    10    12    1
    13     1     2    1
    14     2     4    2
    15     2     3    1
