@<TRIPOS>MOLECULE
/home/cewinharhar/GITHUB/reincatalyze/data/processed/docking_pred/2023-May-31-1603_sub9_nm5_bs15_s42_ex16_mel10_mts1000_k50_ec05_g099_lra3e-4_lrc9e-3/e9ca5ba4bc0452251e134010a3e53239cf47eed8_ligand_9.pdbqt
 14 15 0 0 0
SMALL
GASTEIGER

@<TRIPOS>ATOM
      1  C          6.5460    0.4860    1.1280 C.3     1  UNL1        0.0800
      2  C          5.2510    1.1570    1.3540 C.2     1  UNL1        0.1300
      3  C          4.7720    2.1490    0.3710 C.3     1  UNL1        0.0870
      4  O          4.6100    0.8820    2.3380 O.2     1  UNL1       -0.3000
      5  C          7.0460    0.7180   -0.2820 C.3     1  UNL1        0.0430
      6  C          7.5830   -0.5220   -0.8490 C.2     1  UNL1       -0.0440
      7  C          7.8370   -0.6170   -2.2020 C.2     1  UNL1        0.0080
      8  C          7.8510   -1.6300   -0.0650 C.2     1  UNL1        0.0540
      9  C          8.3450   -1.7780   -2.7800 C.2     1  UNL1        0.0510
     10  C          8.3590   -2.8050   -0.6150 C.2     1  UNL1        0.1660
     11  C          8.6030   -2.8680   -1.9710 C.2     1  UNL1        0.1650
     12  O          8.7180   -4.0460   -0.0900 O.2     1  UNL1       -0.4540
     13  O          9.1000   -4.1320   -2.2520 O.2     1  UNL1       -0.4540
     14  C          8.9240   -4.9790   -1.1200 C.3     1  UNL1        0.4680
@<TRIPOS>BOND
     1     9     7    1
     2     9    11    2
     3    13    11    1
     4    13    14    1
     5     7     6    2
     6    11    10    1
     7    14    12    1
     8     6     5    1
     9     6     8    1
    10    10    12    1
    11    10     8    2
    12     5     1    1
    13     3     2    1
    14     1     2    1
    15     2     4    2
