@<TRIPOS>MOLECULE
/home/cewinharhar/GITHUB/reincatalyze/data/processed/docking_pred/2023-May-31-1603_sub9_nm5_bs15_s42_ex16_mel10_mts1000_k50_ec05_g099_lra3e-4_lrc9e-3/ea9f39b4277e7ba3f00603e8654b95ed05d2571c_ligand_9.pdbqt
 14 15 0 0 0
SMALL
GASTEIGER

@<TRIPOS>ATOM
      1  C          5.7350    1.1710   -0.2520 C.3     1  UNL1        0.0800
      2  C          5.1950    1.2040    1.1220 C.2     1  UNL1        0.1300
      3  C          5.4770    0.0770    2.0350 C.3     1  UNL1        0.0870
      4  O          4.5330    2.1500    1.4710 O.2     1  UNL1       -0.3000
      5  C          7.2450    1.0520   -0.2450 C.3     1  UNL1        0.0430
      6  C          7.6620   -0.2470   -0.7800 C.2     1  UNL1       -0.0440
      7  C          7.7360   -0.4470   -2.1430 C.2     1  UNL1        0.0080
      8  C          7.9920   -1.3070    0.0460 C.2     1  UNL1        0.0540
      9  C          8.1270   -1.6660   -2.6910 C.2     1  UNL1        0.0510
     10  C          8.3860   -2.5380   -0.4740 C.2     1  UNL1        0.1660
     11  C          8.4500   -2.7070   -1.8410 C.2     1  UNL1        0.1650
     12  O          8.7680   -3.7540    0.0930 O.2     1  UNL1       -0.4540
     13  O          8.8650   -4.0080   -2.0870 O.2     1  UNL1       -0.4540
     14  C          8.8090   -4.7650   -0.8810 C.3     1  UNL1        0.4680
@<TRIPOS>BOND
     1     9     7    1
     2     9    11    2
     3     7     6    2
     4    13    11    1
     5    13    14    1
     6    11    10    1
     7    14    12    1
     8     6     5    1
     9     6     8    1
    10    10     8    2
    11    10    12    1
    12     1     5    1
    13     1     2    1
    14     2     4    2
    15     2     3    1
