@<TRIPOS>MOLECULE
/home/cewinharhar/GITHUB/reincatalyze/data/processed/docking_pred/2023-May-31-1603_sub9_nm5_bs15_s42_ex16_mel10_mts1000_k50_ec05_g099_lra3e-4_lrc9e-3/ea9f39b4277e7ba3f00603e8654b95ed05d2571c_ligand_9.pdbqt
 14 15 0 0 0
SMALL
GASTEIGER

@<TRIPOS>ATOM
      1  C          5.3540   -0.0560    1.9860 C.3     1  UNL1        0.0800
      2  C          4.5360    1.1540    1.7690 C.2     1  UNL1        0.1300
      3  C          4.9280    2.1100    0.7130 C.3     1  UNL1        0.0870
      4  O          3.5630    1.3370    2.4580 O.2     1  UNL1       -0.3000
      5  C          6.8080    0.1960    1.6420 C.3     1  UNL1        0.0430
      6  C          7.2710   -0.7600    0.6330 C.2     1  UNL1       -0.0440
      7  C          7.0910   -0.4980   -0.7100 C.2     1  UNL1        0.0080
      8  C          7.8970   -1.9450    0.9790 C.2     1  UNL1        0.0540
      9  C          7.5160   -1.3800   -1.7000 C.2     1  UNL1        0.0510
     10  C          8.3330   -2.8470    0.0110 C.2     1  UNL1        0.1660
     11  C          8.1380   -2.5550   -1.3230 C.2     1  UNL1        0.1650
     12  O          8.9770   -4.0830    0.0560 O.2     1  UNL1       -0.4540
     13  O          8.6590   -3.6060   -2.0650 O.2     1  UNL1       -0.4540
     14  C          8.9480   -4.7040   -1.2040 C.3     1  UNL1        0.4680
@<TRIPOS>BOND
     1    13    11    1
     2    13    14    1
     3     9    11    2
     4     9     7    1
     5    11    10    1
     6    14    12    1
     7     7     6    2
     8    10    12    1
     9    10     8    2
    10     6     8    1
    11     6     5    1
    12     3     2    1
    13     5     1    1
    14     2     1    1
    15     2     4    2
