@<TRIPOS>MOLECULE
/home/cewinharhar/GITHUB/reincatalyze/data/processed/docking_pred/2023-May-31-1603_sub9_nm5_bs15_s42_ex16_mel10_mts1000_k50_ec05_g099_lra3e-4_lrc9e-3/eb53456adf8787420c4e8f25112cf644d6bf88f9_ligand_9.pdbqt
 14 15 0 0 0
SMALL
GASTEIGER

@<TRIPOS>ATOM
      1  C          6.7740    0.7670    1.0600 C.3     1  UNL1        0.0800
      2  C          5.3860    1.0720    1.4620 C.2     1  UNL1        0.1300
      3  C          4.6550    2.1500    0.7670 C.3     1  UNL1        0.0870
      4  O          4.8780    0.4330    2.3510 O.2     1  UNL1       -0.3000
      5  C          6.9360    0.8310   -0.4440 C.3     1  UNL1        0.0430
      6  C          7.4760   -0.4310   -0.9580 C.2     1  UNL1       -0.0440
      7  C          7.6590   -0.6100   -2.3140 C.2     1  UNL1        0.0080
      8  C          7.8180   -1.4770   -0.1190 C.2     1  UNL1        0.0540
      9  C          8.1680   -1.7940   -2.8420 C.2     1  UNL1        0.0510
     10  C          8.3290   -2.6730   -0.6180 C.2     1  UNL1        0.1660
     11  C          8.5010   -2.8210   -1.9790 C.2     1  UNL1        0.1650
     12  O          8.7510   -3.8670   -0.0350 O.2     1  UNL1       -0.4540
     13  O          9.0180   -4.0880   -2.2040 O.2     1  UNL1       -0.4540
     14  C          8.9280   -4.8620   -1.0100 C.3     1  UNL1        0.4680
@<TRIPOS>BOND
     1     9     7    1
     2     9    11    2
     3     7     6    2
     4    13    11    1
     5    13    14    1
     6    11    10    1
     7    14    12    1
     8     6     5    1
     9     6     8    1
    10    10     8    2
    11    10    12    1
    12     5     1    1
    13     3     2    1
    14     1     2    1
    15     2     4    2
