@<TRIPOS>MOLECULE
/home/cewinharhar/GITHUB/reincatalyze/data/processed/docking_pred/2023-May-31-1603_sub9_nm5_bs15_s42_ex16_mel10_mts1000_k50_ec05_g099_lra3e-4_lrc9e-3/eb53456adf8787420c4e8f25112cf644d6bf88f9_ligand_9.pdbqt
 14 15 0 0 0
SMALL
GASTEIGER

@<TRIPOS>ATOM
      1  C          6.2390    1.3280    0.9380 C.3     1  UNL1        0.0800
      2  C          5.5570    0.4860    1.9420 C.2     1  UNL1        0.1300
      3  C          6.2650   -0.6830    2.5010 C.3     1  UNL1        0.0870
      4  O          4.4360    0.7700    2.2840 O.2     1  UNL1       -0.3000
      5  C          5.7470    1.0200   -0.4610 C.3     1  UNL1        0.0430
      6  C          6.7050    0.1630   -1.1670 C.2     1  UNL1       -0.0440
      7  C          7.3830    0.6370   -2.2710 C.2     1  UNL1        0.0080
      8  C          6.9630   -1.1350   -0.7610 C.2     1  UNL1        0.0540
      9  C          8.2990   -0.1450   -2.9680 C.2     1  UNL1        0.0510
     10  C          7.8750   -1.9400   -1.4390 C.2     1  UNL1        0.1660
     11  C          8.5370   -1.4370   -2.5400 C.2     1  UNL1        0.1650
     12  O          8.3290   -3.2480   -1.2690 O.2     1  UNL1       -0.4540
     13  O          9.3750   -2.4330   -3.0210 O.2     1  UNL1       -0.4540
     14  C          9.0560   -3.6720   -2.3940 C.3     1  UNL1        0.4680
@<TRIPOS>BOND
     1    13    11    1
     2    13    14    1
     3     9    11    2
     4     9     7    1
     5    11    10    1
     6    14    12    1
     7     7     6    2
     8    10    12    1
     9    10     8    2
    10     6     8    1
    11     6     5    1
    12     5     1    1
    13     1     2    1
    14     2     4    2
    15     2     3    1
