@<TRIPOS>MOLECULE
/home/cewinharhar/GITHUB/reincatalyze/data/processed/docking_pred/2023-May-31-1603_sub9_nm5_bs15_s42_ex16_mel10_mts1000_k50_ec05_g099_lra3e-4_lrc9e-3/f15420a79f585431148ea344134f913ab78e73cd_ligand_9.pdbqt
 14 15 0 0 0
SMALL
GASTEIGER

@<TRIPOS>ATOM
      1  C          8.1820   -2.5140   -3.6050 C.3     1  UNL1        0.0800
      2  C          9.2530   -3.5150   -3.4240 C.2     1  UNL1        0.1300
      3  C          8.8970   -4.9470   -3.3570 C.3     1  UNL1        0.0870
      4  O         10.3960   -3.1420   -3.3330 O.2     1  UNL1       -0.3000
      5  C          8.5980   -1.1620   -3.0650 C.3     1  UNL1        0.0430
      6  C          7.7960   -0.8080   -1.8900 C.2     1  UNL1       -0.0440
      7  C          6.9940    0.3150   -1.9060 C.2     1  UNL1        0.0080
      8  C          7.8110   -1.5720   -0.7360 C.2     1  UNL1        0.0540
      9  C          6.2180    0.6860   -0.8110 C.2     1  UNL1        0.0510
     10  C          7.0450   -1.2260    0.3750 C.2     1  UNL1        0.1660
     11  C          6.2530   -0.0970    0.3270 C.2     1  UNL1        0.1650
     12  O          6.8600   -1.7850    1.6390 O.2     1  UNL1       -0.4540
     13  O          5.6050    0.0150    1.5490 O.2     1  UNL1       -0.4540
     14  C          6.1840   -0.8900    2.4840 C.3     1  UNL1        0.4680
@<TRIPOS>BOND
     1     1     2    1
     2     1     5    1
     3     2     3    1
     4     2     4    2
     5     5     6    1
     6     7     6    2
     7     7     9    1
     8     6     8    1
     9     9    11    2
    10     8    10    2
    11    11    10    1
    12    11    13    1
    13    10    12    1
    14    13    14    1
    15    12    14    1
