@<TRIPOS>MOLECULE
/home/cewinharhar/GITHUB/reincatalyze/data/processed/docking_pred/2023-May-31-1603_sub9_nm5_bs15_s42_ex16_mel10_mts1000_k50_ec05_g099_lra3e-4_lrc9e-3/f15420a79f585431148ea344134f913ab78e73cd_ligand_9.pdbqt
 14 15 0 0 0
SMALL
GASTEIGER

@<TRIPOS>ATOM
      1  C          5.8280   -0.1780    1.2870 C.3     1  UNL1        0.0800
      2  C          4.9290    0.9710    1.5150 C.2     1  UNL1        0.1300
      3  C          5.0290    2.1500    0.6310 C.3     1  UNL1        0.0870
      4  O          4.1310    0.9230    2.4180 O.2     1  UNL1       -0.3000
      5  C          7.2220    0.2810    0.9130 C.3     1  UNL1        0.0430
      6  C          7.6420   -0.3280   -0.3520 C.2     1  UNL1       -0.0440
      7  C          7.8470    0.4560   -1.4690 C.2     1  UNL1        0.0080
      8  C          7.8460   -1.6910   -0.4770 C.2     1  UNL1        0.0540
      9  C          8.2450   -0.0830   -2.6890 C.2     1  UNL1        0.0510
     10  C          8.2450   -2.2590   -1.6840 C.2     1  UNL1        0.1660
     11  C          8.4420   -1.4480   -2.7820 C.2     1  UNL1        0.1650
     12  O          8.5210   -3.5620   -2.1000 O.2     1  UNL1       -0.4540
     13  O          8.8300   -2.2570   -3.8410 O.2     1  UNL1       -0.4540
     14  C          8.6230   -3.6250   -3.4990 C.3     1  UNL1        0.4680
@<TRIPOS>BOND
     1    13    14    1
     2    13    11    1
     3    14    12    1
     4    11     9    2
     5    11    10    1
     6     9     7    1
     7    12    10    1
     8    10     8    2
     9     7     6    2
    10     8     6    1
    11     6     5    1
    12     3     2    1
    13     5     1    1
    14     1     2    1
    15     2     4    2
