@<TRIPOS>MOLECULE
/home/cewinharhar/GITHUB/reincatalyze/data/processed/docking_pred/2023-May-31-1603_sub9_nm5_bs15_s42_ex16_mel10_mts1000_k50_ec05_g099_lra3e-4_lrc9e-3/f15420a79f585431148ea344134f913ab78e73cd_ligand_9.pdbqt
 14 15 0 0 0
SMALL
GASTEIGER

@<TRIPOS>ATOM
      1  C          6.0500    1.5450    1.2060 C.3     1  UNL1        0.0800
      2  C          5.4630    0.4520    2.0070 C.2     1  UNL1        0.1300
      3  C          6.2670   -0.7570    2.2760 C.3     1  UNL1        0.0870
      4  O          4.3380    0.5690    2.4250 O.2     1  UNL1       -0.3000
      5  C          5.7380    1.3760   -0.2660 C.3     1  UNL1        0.0430
      6  C          6.7900    0.5990   -0.9290 C.2     1  UNL1       -0.0440
      7  C          8.1030    1.0180   -0.8770 C.2     1  UNL1        0.0080
      8  C          6.5130   -0.5650   -1.6240 C.2     1  UNL1        0.0540
      9  C          9.1310    0.3100   -1.4940 C.2     1  UNL1        0.0510
     10  C          7.5200   -1.2950   -2.2510 C.2     1  UNL1        0.1660
     11  C          8.8240   -0.8490   -2.1800 C.2     1  UNL1        0.1650
     12  O          7.5440   -2.4700   -3.0010 O.2     1  UNL1       -0.4540
     13  O          9.6150   -1.7480   -2.8810 O.2     1  UNL1       -0.4540
     14  C          8.7880   -2.6310   -3.6330 C.3     1  UNL1        0.4680
@<TRIPOS>BOND
     1    14    12    1
     2    14    13    1
     3    12    10    1
     4    13    11    1
     5    10    11    2
     6    10     8    1
     7    11     9    1
     8     8     6    2
     9     9     7    2
    10     6     7    1
    11     6     5    1
    12     5     1    1
    13     1     2    1
    14     2     3    1
    15     2     4    2
