@<TRIPOS>MOLECULE
/home/cewinharhar/GITHUB/reincatalyze/data/processed/docking_pred/2023-May-31-1603_sub9_nm5_bs15_s42_ex16_mel10_mts1000_k50_ec05_g099_lra3e-4_lrc9e-3/f1acaff2cf7a86b9bbc999bfeecc6491fc2a0881_ligand_9.pdbqt
 14 15 0 0 0
SMALL
GASTEIGER

@<TRIPOS>ATOM
      1  C          6.5700    1.3120    0.3610 C.3     1  UNL1        0.0800
      2  C          5.4360    1.1860    1.2990 C.2     1  UNL1        0.1300
      3  C          5.3250   -0.0260    2.1360 C.3     1  UNL1        0.0870
      4  O          4.6240    2.0750    1.3630 O.2     1  UNL1       -0.3000
      5  C          6.1890    0.8390   -1.0260 C.3     1  UNL1        0.0430
      6  C          6.9830   -0.3340   -1.4050 C.2     1  UNL1       -0.0440
      7  C          7.4510   -0.4710   -2.6960 C.2     1  UNL1        0.0080
      8  C          7.2890   -1.3350   -0.5000 C.2     1  UNL1        0.0540
      9  C          8.2070   -1.5690   -3.0970 C.2     1  UNL1        0.0510
     10  C          8.0440   -2.4450   -0.8720 C.2     1  UNL1        0.1660
     11  C          8.4970   -2.5530   -2.1700 C.2     1  UNL1        0.1650
     12  O          8.4980   -3.5800   -0.2000 O.2     1  UNL1       -0.4540
     13  O          9.2130   -3.7370   -2.2710 O.2     1  UNL1       -0.4540
     14  C          8.9940   -4.5300   -1.1070 C.3     1  UNL1        0.4680
@<TRIPOS>BOND
     1     9     7    1
     2     9    11    2
     3     7     6    2
     4    13    11    1
     5    13    14    1
     6    11    10    1
     7     6     5    1
     8     6     8    1
     9    14    12    1
    10     5     1    1
    11    10     8    2
    12    10    12    1
    13     1     2    1
    14     2     4    2
    15     2     3    1
