@<TRIPOS>MOLECULE
/home/cewinharhar/GITHUB/reincatalyze/data/processed/docking_pred/2023-May-31-1603_sub9_nm5_bs15_s42_ex16_mel10_mts1000_k50_ec05_g099_lra3e-4_lrc9e-3/f1acaff2cf7a86b9bbc999bfeecc6491fc2a0881_ligand_9.pdbqt
 14 15 0 0 0
SMALL
GASTEIGER

@<TRIPOS>ATOM
      1  C          5.3760   -0.0930    1.8520 C.3     1  UNL1        0.0800
      2  C          4.6020    1.1490    1.6510 C.2     1  UNL1        0.1300
      3  C          5.0410    2.1130    0.6220 C.3     1  UNL1        0.0870
      4  O          3.6270    1.3490    2.3310 O.2     1  UNL1       -0.3000
      5  C          6.8470    0.1250    1.5630 C.3     1  UNL1        0.0430
      6  C          7.3240   -0.8380    0.5670 C.2     1  UNL1       -0.0440
      7  C          7.1800   -0.5760   -0.7800 C.2     1  UNL1        0.0080
      8  C          7.9280   -2.0290    0.9290 C.2     1  UNL1        0.0540
      9  C          7.6190   -1.4640   -1.7580 C.2     1  UNL1        0.0510
     10  C          8.3770   -2.9370   -0.0260 C.2     1  UNL1        0.1660
     11  C          8.2180   -2.6460   -1.3650 C.2     1  UNL1        0.1650
     12  O          9.0050   -4.1810    0.0350 O.2     1  UNL1       -0.4540
     13  O          8.7440   -3.7040   -2.0930 O.2     1  UNL1       -0.4540
     14  C          9.0000   -4.8030   -1.2240 C.3     1  UNL1        0.4680
@<TRIPOS>BOND
     1    13    11    1
     2    13    14    1
     3     9    11    2
     4     9     7    1
     5    11    10    1
     6    14    12    1
     7     7     6    2
     8    10    12    1
     9    10     8    2
    10     6     8    1
    11     6     5    1
    12     3     2    1
    13     5     1    1
    14     2     1    1
    15     2     4    2
