@<TRIPOS>MOLECULE
/home/cewinharhar/GITHUB/reincatalyze/data/processed/docking_pred/2023-May-31-1603_sub9_nm5_bs15_s42_ex16_mel10_mts1000_k50_ec05_g099_lra3e-4_lrc9e-3/f1acaff2cf7a86b9bbc999bfeecc6491fc2a0881_ligand_9.pdbqt
 14 15 0 0 0
SMALL
GASTEIGER

@<TRIPOS>ATOM
      1  C          6.2480    1.2550    0.9980 C.3     1  UNL1        0.0800
      2  C          5.5650    0.3960    1.9850 C.2     1  UNL1        0.1300
      3  C          6.2540   -0.8080    2.4920 C.3     1  UNL1        0.0870
      4  O          4.4570    0.6950    2.3570 O.2     1  UNL1       -0.3000
      5  C          5.7530    0.9790   -0.4070 C.3     1  UNL1        0.0430
      6  C          6.7010    0.1240   -1.1280 C.2     1  UNL1       -0.0440
      7  C          7.3490    0.5950   -2.2510 C.2     1  UNL1        0.0080
      8  C          6.9790   -1.1690   -0.7190 C.2     1  UNL1        0.0540
      9  C          8.2550   -0.1850   -2.9640 C.2     1  UNL1        0.0510
     10  C          7.8810   -1.9720   -1.4120 C.2     1  UNL1        0.1660
     11  C          8.5130   -1.4720   -2.5310 C.2     1  UNL1        0.1650
     12  O          8.3490   -3.2750   -1.2430 O.2     1  UNL1       -0.4540
     13  O          9.3480   -2.4650   -3.0240 O.2     1  UNL1       -0.4540
     14  C          9.0530   -3.7020   -2.3810 C.3     1  UNL1        0.4680
@<TRIPOS>BOND
     1    13    11    1
     2    13    14    1
     3     9    11    2
     4     9     7    1
     5    11    10    1
     6    14    12    1
     7     7     6    2
     8    10    12    1
     9    10     8    2
    10     6     8    1
    11     6     5    1
    12     5     1    1
    13     1     2    1
    14     2     4    2
    15     2     3    1
