@<TRIPOS>MOLECULE
/home/cewinharhar/GITHUB/reincatalyze/data/processed/docking_pred/2023-May-31-1603_sub9_nm5_bs15_s42_ex16_mel10_mts1000_k50_ec05_g099_lra3e-4_lrc9e-3/f1acaff2cf7a86b9bbc999bfeecc6491fc2a0881_ligand_9.pdbqt
 14 15 0 0 0
SMALL
GASTEIGER

@<TRIPOS>ATOM
      1  C          5.5750    1.8420    1.3150 C.3     1  UNL1        0.0800
      2  C          5.0820    0.6510    2.0360 C.2     1  UNL1        0.1300
      3  C          5.9670   -0.5220    2.1800 C.3     1  UNL1        0.0870
      4  O          3.9650    0.6620    2.4930 O.2     1  UNL1       -0.3000
      5  C          5.4000    1.6880   -0.1820 C.3     1  UNL1        0.0430
      6  C          6.5330    0.9590   -0.7600 C.2     1  UNL1       -0.0440
      7  C          7.8240    1.3980   -0.5500 C.2     1  UNL1        0.0080
      8  C          6.3570   -0.1790   -1.5270 C.2     1  UNL1        0.0540
      9  C          8.9270    0.7350   -1.0820 C.2     1  UNL1        0.0510
     10  C          7.4400   -0.8640   -2.0720 C.2     1  UNL1        0.1660
     11  C          8.7190   -0.4000   -1.8440 C.2     1  UNL1        0.1650
     12  O          7.5700   -2.0050   -2.8630 O.2     1  UNL1       -0.4540
     13  O          9.6000   -1.2540   -2.4920 O.2     1  UNL1       -0.4540
     14  C          8.8770   -2.1180   -3.3640 C.3     1  UNL1        0.4680
@<TRIPOS>BOND
     1    14    12    1
     2    14    13    1
     3    12    10    1
     4    13    11    1
     5    10    11    2
     6    10     8    1
     7    11     9    1
     8     8     6    2
     9     9     7    2
    10     6     7    1
    11     6     5    1
    12     5     1    1
    13     1     2    1
    14     2     3    1
    15     2     4    2
