MODEL 1
REMARK VINA RESULT:      -7.2      0.000      0.000
REMARK SMILES CC(=O)CCc1ccc2c(c1)OCO2
REMARK SMILES IDX 4 1 2 2 1 3 3 4 5 5 6 6 7 7 11 8 8 9 10 10 9 11 12 12 14 13
REMARK SMILES IDX 13 14
REMARK H PARENT
REMARK Flexibility Score: inf
ROOT
ATOM      1  C   UNL     1       5.575   1.842   1.315  1.00  0.00     0.080 C 
ENDROOT
BRANCH   1   2
ATOM      2  C   UNL     1       5.082   0.651   2.036  1.00  0.00     0.130 C 
ATOM      3  C   UNL     1       5.967  -0.522   2.180  1.00  0.00     0.087 C 
ATOM      4  O   UNL     1       3.965   0.662   2.493  1.00  0.00    -0.300 OA
ENDBRANCH   1   2
BRANCH   1   5
ATOM      5  C   UNL     1       5.400   1.688  -0.182  1.00  0.00     0.043 C 
BRANCH   5   6
ATOM      6  C   UNL     1       6.533   0.959  -0.760  1.00  0.00    -0.044 A 
ATOM      7  C   UNL     1       7.824   1.398  -0.550  1.00  0.00     0.008 A 
ATOM      8  C   UNL     1       6.357  -0.179  -1.527  1.00  0.00     0.054 A 
ATOM      9  C   UNL     1       8.927   0.735  -1.082  1.00  0.00     0.051 A 
ATOM     10  C   UNL     1       7.440  -0.864  -2.072  1.00  0.00     0.166 A 
ATOM     11  C   UNL     1       8.719  -0.400  -1.844  1.00  0.00     0.165 A 
ATOM     12  O   UNL     1       7.570  -2.005  -2.863  1.00  0.00    -0.454 OA
ATOM     13  O   UNL     1       9.600  -1.254  -2.492  1.00  0.00    -0.454 OA
ATOM     14  C   UNL     1       8.877  -2.118  -3.364  1.00  0.00     0.468 C 
ENDBRANCH   5   6
ENDBRANCH   1   5
TORSDOF 3
ENDMDL
MODEL 2
REMARK VINA RESULT:      -7.1      1.778      2.237
REMARK SMILES CC(=O)CCc1ccc2c(c1)OCO2
REMARK SMILES IDX 4 1 2 2 1 3 3 4 5 5 6 6 7 7 11 8 8 9 10 10 9 11 12 12 14 13
REMARK SMILES IDX 13 14
REMARK H PARENT
REMARK Flexibility Score: inf
ROOT
ATOM      1  C   UNL     1       6.570   1.312   0.361  1.00  0.00     0.080 C 
ENDROOT
BRANCH   1   2
ATOM      2  C   UNL     1       5.436   1.186   1.299  1.00  0.00     0.130 C 
ATOM      3  C   UNL     1       5.325  -0.026   2.136  1.00  0.00     0.087 C 
ATOM      4  O   UNL     1       4.624   2.075   1.363  1.00  0.00    -0.300 OA
ENDBRANCH   1   2
BRANCH   1   5
ATOM      5  C   UNL     1       6.189   0.839  -1.026  1.00  0.00     0.043 C 
BRANCH   5   6
ATOM      6  C   UNL     1       6.983  -0.334  -1.405  1.00  0.00    -0.044 A 
ATOM      7  C   UNL     1       7.451  -0.471  -2.696  1.00  0.00     0.008 A 
ATOM      8  C   UNL     1       7.289  -1.335  -0.500  1.00  0.00     0.054 A 
ATOM      9  C   UNL     1       8.207  -1.569  -3.097  1.00  0.00     0.051 A 
ATOM     10  C   UNL     1       8.044  -2.445  -0.872  1.00  0.00     0.166 A 
ATOM     11  C   UNL     1       8.497  -2.553  -2.170  1.00  0.00     0.165 A 
ATOM     12  O   UNL     1       8.498  -3.580  -0.200  1.00  0.00    -0.454 OA
ATOM     13  O   UNL     1       9.213  -3.737  -2.271  1.00  0.00    -0.454 OA
ATOM     14  C   UNL     1       8.994  -4.530  -1.107  1.00  0.00     0.468 C 
ENDBRANCH   5   6
ENDBRANCH   1   5
TORSDOF 3
ENDMDL
MODEL 3
REMARK VINA RESULT:      -6.9      2.137      2.683
REMARK SMILES CC(=O)CCc1ccc2c(c1)OCO2
REMARK SMILES IDX 4 1 2 2 1 3 3 4 5 5 6 6 7 7 11 8 8 9 10 10 9 11 12 12 14 13
REMARK SMILES IDX 13 14
REMARK H PARENT
REMARK Flexibility Score: inf
ROOT
ATOM      1  C   UNL     1       5.376  -0.093   1.852  1.00  0.00     0.080 C 
ENDROOT
BRANCH   1   2
ATOM      2  C   UNL     1       4.602   1.149   1.651  1.00  0.00     0.130 C 
ATOM      3  C   UNL     1       5.041   2.113   0.622  1.00  0.00     0.087 C 
ATOM      4  O   UNL     1       3.627   1.349   2.331  1.00  0.00    -0.300 OA
ENDBRANCH   1   2
BRANCH   1   5
ATOM      5  C   UNL     1       6.847   0.125   1.563  1.00  0.00     0.043 C 
BRANCH   5   6
ATOM      6  C   UNL     1       7.324  -0.838   0.567  1.00  0.00    -0.044 A 
ATOM      7  C   UNL     1       7.180  -0.576  -0.780  1.00  0.00     0.008 A 
ATOM      8  C   UNL     1       7.928  -2.029   0.929  1.00  0.00     0.054 A 
ATOM      9  C   UNL     1       7.619  -1.464  -1.758  1.00  0.00     0.051 A 
ATOM     10  C   UNL     1       8.377  -2.937  -0.026  1.00  0.00     0.166 A 
ATOM     11  C   UNL     1       8.218  -2.646  -1.365  1.00  0.00     0.165 A 
ATOM     12  O   UNL     1       9.005  -4.181   0.035  1.00  0.00    -0.454 OA
ATOM     13  O   UNL     1       8.744  -3.704  -2.093  1.00  0.00    -0.454 OA
ATOM     14  C   UNL     1       9.000  -4.803  -1.224  1.00  0.00     0.468 C 
ENDBRANCH   5   6
ENDBRANCH   1   5
TORSDOF 3
ENDMDL
MODEL 4
REMARK VINA RESULT:      -6.9      1.244      1.403
REMARK SMILES CC(=O)CCc1ccc2c(c1)OCO2
REMARK SMILES IDX 4 1 2 2 1 3 3 4 5 5 6 6 7 7 11 8 8 9 10 10 9 11 12 12 14 13
REMARK SMILES IDX 13 14
REMARK H PARENT
REMARK Flexibility Score: inf
ROOT
ATOM      1  C   UNL     1       6.248   1.255   0.998  1.00  0.00     0.080 C 
ENDROOT
BRANCH   1   2
ATOM      2  C   UNL     1       5.565   0.396   1.985  1.00  0.00     0.130 C 
ATOM      3  C   UNL     1       6.254  -0.808   2.492  1.00  0.00     0.087 C 
ATOM      4  O   UNL     1       4.457   0.695   2.357  1.00  0.00    -0.300 OA
ENDBRANCH   1   2
BRANCH   1   5
ATOM      5  C   UNL     1       5.753   0.979  -0.407  1.00  0.00     0.043 C 
BRANCH   5   6
ATOM      6  C   UNL     1       6.701   0.124  -1.128  1.00  0.00    -0.044 A 
ATOM      7  C   UNL     1       7.349   0.595  -2.251  1.00  0.00     0.008 A 
ATOM      8  C   UNL     1       6.979  -1.169  -0.719  1.00  0.00     0.054 A 
ATOM      9  C   UNL     1       8.255  -0.185  -2.964  1.00  0.00     0.051 A 
ATOM     10  C   UNL     1       7.881  -1.972  -1.412  1.00  0.00     0.166 A 
ATOM     11  C   UNL     1       8.513  -1.472  -2.531  1.00  0.00     0.165 A 
ATOM     12  O   UNL     1       8.349  -3.275  -1.243  1.00  0.00    -0.454 OA
ATOM     13  O   UNL     1       9.348  -2.465  -3.024  1.00  0.00    -0.454 OA
ATOM     14  C   UNL     1       9.053  -3.702  -2.381  1.00  0.00     0.468 C 
ENDBRANCH   5   6
ENDBRANCH   1   5
TORSDOF 3
ENDMDL
MODEL 5
REMARK VINA RESULT:      -6.8      2.004      2.517
REMARK SMILES CC(=O)CCc1ccc2c(c1)OCO2
REMARK SMILES IDX 4 1 2 2 1 3 3 4 5 5 6 6 7 7 11 8 8 9 10 10 9 11 12 12 14 13
REMARK SMILES IDX 13 14
REMARK H PARENT
REMARK Flexibility Score: inf
ROOT
ATOM      1  C   UNL     1       6.792   0.868   1.519  1.00  0.00     0.080 C 
ENDROOT
BRANCH   1   2
ATOM      2  C   UNL     1       5.345   1.160   1.479  1.00  0.00     0.130 C 
ATOM      3  C   UNL     1       4.822   2.069   0.439  1.00  0.00     0.087 C 
ATOM      4  O   UNL     1       4.619   0.649   2.296  1.00  0.00    -0.300 OA
ENDBRANCH   1   2
BRANCH   1   5
ATOM      5  C   UNL     1       7.434   1.091   0.166  1.00  0.00     0.043 C 
BRANCH   5   6
ATOM      6  C   UNL     1       7.749  -0.191  -0.472  1.00  0.00    -0.044 A 
ATOM      7  C   UNL     1       7.660  -0.328  -1.842  1.00  0.00     0.008 A 
ATOM      8  C   UNL     1       8.140  -1.298   0.261  1.00  0.00     0.054 A 
ATOM      9  C   UNL     1       7.949  -1.528  -2.486  1.00  0.00     0.051 A 
ATOM     10  C   UNL     1       8.436  -2.511  -0.355  1.00  0.00     0.166 A 
ATOM     11  C   UNL     1       8.338  -2.616  -1.727  1.00  0.00     0.165 A 
ATOM     12  O   UNL     1       8.844  -3.761   0.108  1.00  0.00    -0.454 OA
ATOM     13  O   UNL     1       8.683  -3.913  -2.077  1.00  0.00    -0.454 OA
ATOM     14  C   UNL     1       8.743  -4.725  -0.908  1.00  0.00     0.468 C 
ENDBRANCH   5   6
ENDBRANCH   1   5
TORSDOF 3
ENDMDL
