@<TRIPOS>MOLECULE
/home/cewinharhar/GITHUB/reincatalyze/data/processed/docking_pred/2023-May-31-1603_sub9_nm5_bs15_s42_ex16_mel10_mts1000_k50_ec05_g099_lra3e-4_lrc9e-3/f338baa35ded8d3cb3d8a5b9e0cebf8a24c11f6d_ligand_9.pdbqt
 14 15 0 0 0
SMALL
GASTEIGER

@<TRIPOS>ATOM
      1  C          8.1650    0.1420   -2.7340 C.3     1  UNL1        0.0800
      2  C          7.8630   -1.3030   -2.7180 C.2     1  UNL1        0.1300
      3  C          8.9610   -2.2710   -2.9080 C.3     1  UNL1        0.0870
      4  O          6.7240   -1.6630   -2.5500 O.2     1  UNL1       -0.3000
      5  C          8.7520    0.5950   -1.4130 C.3     1  UNL1        0.0430
      6  C          7.7560    0.4840   -0.3430 C.2     1  UNL1       -0.0440
      7  C          7.8820   -0.4900    0.6260 C.2     1  UNL1        0.0080
      8  C          6.6690    1.3360   -0.2620 C.2     1  UNL1        0.0540
      9  C          6.9580   -0.6300    1.6590 C.2     1  UNL1        0.0510
     10  C          5.7290    1.2200    0.7590 C.2     1  UNL1        0.1660
     11  C          5.8820    0.2360    1.7130 C.2     1  UNL1        0.1650
     12  O          4.5650    1.9130    1.0910 O.2     1  UNL1       -0.4540
     13  O          4.8220    0.3400    2.6020 O.2     1  UNL1       -0.4540
     14  C          3.8360    1.2200    2.0710 C.3     1  UNL1        0.4680
@<TRIPOS>BOND
     1     3     2    1
     2     1     2    1
     3     1     5    1
     4     2     4    2
     5     5     6    1
     6     6     8    2
     7     6     7    1
     8     8    10    1
     9     7     9    2
    10    10    12    1
    11    10    11    2
    12    12    14    1
    13     9    11    1
    14    11    13    1
    15    14    13    1
