@<TRIPOS>MOLECULE
/home/cewinharhar/GITHUB/reincatalyze/data/processed/docking_pred/2023-May-31-1603_sub9_nm5_bs15_s42_ex16_mel10_mts1000_k50_ec05_g099_lra3e-4_lrc9e-3/f338baa35ded8d3cb3d8a5b9e0cebf8a24c11f6d_ligand_9.pdbqt
 14 15 0 0 0
SMALL
GASTEIGER

@<TRIPOS>ATOM
      1  C          6.5430    0.5820    1.2810 C.3     1  UNL1        0.0800
      2  C          5.1690    1.1080    1.4020 C.2     1  UNL1        0.1300
      3  C          4.7100    2.1490    0.4590 C.3     1  UNL1        0.0870
      4  O          4.4490    0.6780    2.2690 O.2     1  UNL1       -0.3000
      5  C          7.1060    0.8290   -0.1030 C.3     1  UNL1        0.0430
      6  C          7.5830   -0.4240   -0.6960 C.2     1  UNL1       -0.0440
      7  C          7.7040   -0.5460   -2.0650 C.2     1  UNL1        0.0080
      8  C          7.9250   -1.5180    0.0800 C.2     1  UNL1        0.0540
      9  C          8.1530   -1.7190   -2.6670 C.2     1  UNL1        0.0510
     10  C          8.3780   -2.7040   -0.4930 C.2     1  UNL1        0.1660
     11  C          8.4880   -2.7940   -1.8650 C.2     1  UNL1        0.1650
     12  O          8.7840   -3.9360    0.0180 O.2     1  UNL1       -0.4540
     13  O          8.9540   -4.0650   -2.1690 O.2     1  UNL1       -0.4540
     14  C          8.8890   -4.8890   -1.0090 C.3     1  UNL1        0.4680
@<TRIPOS>BOND
     1     9     7    1
     2     9    11    2
     3    13    11    1
     4    13    14    1
     5     7     6    2
     6    11    10    1
     7    14    12    1
     8     6     5    1
     9     6     8    1
    10    10    12    1
    11    10     8    2
    12     5     1    1
    13     3     2    1
    14     1     2    1
    15     2     4    2
