MODEL 1
REMARK VINA RESULT:      -7.6      0.000      0.000
REMARK SMILES CC(=O)CCc1ccc2c(c1)OCO2
REMARK SMILES IDX 4 1 2 2 1 3 3 4 5 5 6 6 7 7 11 8 8 9 10 10 9 11 12 12 14 13
REMARK SMILES IDX 13 14
REMARK H PARENT
REMARK Flexibility Score: inf
ROOT
ATOM      1  C   UNL     1       5.515   1.907   1.329  1.00  0.00     0.080 C 
ENDROOT
BRANCH   1   2
ATOM      2  C   UNL     1       5.018   0.703   2.024  1.00  0.00     0.130 C 
ATOM      3  C   UNL     1       5.908  -0.467   2.163  1.00  0.00     0.087 C 
ATOM      4  O   UNL     1       3.896   0.700   2.465  1.00  0.00    -0.300 OA
ENDBRANCH   1   2
BRANCH   1   5
ATOM      5  C   UNL     1       5.361   1.777  -0.172  1.00  0.00     0.043 C 
BRANCH   5   6
ATOM      6  C   UNL     1       6.490   1.038  -0.744  1.00  0.00    -0.044 A 
ATOM      7  C   UNL     1       7.784   1.465  -0.526  1.00  0.00     0.008 A 
ATOM      8  C   UNL     1       6.309  -0.098  -1.513  1.00  0.00     0.054 A 
ATOM      9  C   UNL     1       8.884   0.793  -1.051  1.00  0.00     0.051 A 
ATOM     10  C   UNL     1       7.390  -0.791  -2.052  1.00  0.00     0.166 A 
ATOM     11  C   UNL     1       8.671  -0.339  -1.815  1.00  0.00     0.165 A 
ATOM     12  O   UNL     1       7.514  -1.933  -2.843  1.00  0.00    -0.454 OA
ATOM     13  O   UNL     1       9.549  -1.200  -2.458  1.00  0.00    -0.454 OA
ATOM     14  C   UNL     1       8.823  -2.057  -3.336  1.00  0.00     0.468 C 
ENDBRANCH   5   6
ENDBRANCH   1   5
TORSDOF 3
ENDMDL
MODEL 2
REMARK VINA RESULT:      -7.3      1.873      2.287
REMARK SMILES CC(=O)CCc1ccc2c(c1)OCO2
REMARK SMILES IDX 4 1 2 2 1 3 3 4 5 5 6 6 7 7 11 8 8 9 10 10 9 11 12 12 14 13
REMARK SMILES IDX 13 14
REMARK H PARENT
REMARK Flexibility Score: inf
ROOT
ATOM      1  C   UNL     1       5.627   1.329  -0.214  1.00  0.00     0.080 C 
ENDROOT
BRANCH   1   2
ATOM      2  C   UNL     1       4.979   1.212   1.108  1.00  0.00     0.130 C 
ATOM      3  C   UNL     1       5.300   0.056   1.968  1.00  0.00     0.087 C 
ATOM      4  O   UNL     1       4.201   2.065   1.458  1.00  0.00    -0.300 OA
ENDBRANCH   1   2
BRANCH   1   5
ATOM      5  C   UNL     1       7.129   1.163  -0.106  1.00  0.00     0.043 C 
BRANCH   5   6
ATOM      6  C   UNL     1       7.555  -0.089  -0.738  1.00  0.00    -0.044 A 
ATOM      7  C   UNL     1       7.570  -0.206  -2.113  1.00  0.00     0.008 A 
ATOM      8  C   UNL     1       7.951  -1.187   0.005  1.00  0.00     0.054 A 
ATOM      9  C   UNL     1       7.967  -1.377  -2.752  1.00  0.00     0.051 A 
ATOM     10  C   UNL     1       8.354  -2.372  -0.606  1.00  0.00     0.166 A 
ATOM     11  C   UNL     1       8.359  -2.457  -1.982  1.00  0.00     0.165 A 
ATOM     12  O   UNL     1       8.794  -3.608  -0.132  1.00  0.00    -0.454 OA
ATOM     13  O   UNL     1       8.796  -3.728  -2.326  1.00  0.00    -0.454 OA
ATOM     14  C   UNL     1       8.817  -4.557  -1.167  1.00  0.00     0.468 C 
ENDBRANCH   5   6
ENDBRANCH   1   5
TORSDOF 3
ENDMDL
MODEL 3
REMARK VINA RESULT:      -7.3      2.161      2.720
REMARK SMILES CC(=O)CCc1ccc2c(c1)OCO2
REMARK SMILES IDX 4 1 2 2 1 3 3 4 5 5 6 6 7 7 11 8 8 9 10 10 9 11 12 12 14 13
REMARK SMILES IDX 13 14
REMARK H PARENT
REMARK Flexibility Score: inf
ROOT
ATOM      1  C   UNL     1       5.302  -0.164   1.838  1.00  0.00     0.080 C 
ENDROOT
BRANCH   1   2
ATOM      2  C   UNL     1       4.545   1.089   1.641  1.00  0.00     0.130 C 
ATOM      3  C   UNL     1       4.989   2.045   0.607  1.00  0.00     0.087 C 
ATOM      4  O   UNL     1       3.579   1.305   2.330  1.00  0.00    -0.300 OA
ENDBRANCH   1   2
BRANCH   1   5
ATOM      5  C   UNL     1       6.784   0.048   1.604  1.00  0.00     0.043 C 
BRANCH   5   6
ATOM      6  C   UNL     1       7.285  -0.889   0.594  1.00  0.00    -0.044 A 
ATOM      7  C   UNL     1       7.161  -0.597  -0.749  1.00  0.00     0.008 A 
ATOM      8  C   UNL     1       7.891  -2.084   0.940  1.00  0.00     0.054 A 
ATOM      9  C   UNL     1       7.623  -1.460  -1.739  1.00  0.00     0.051 A 
ATOM     10  C   UNL     1       8.363  -2.967  -0.028  1.00  0.00     0.166 A 
ATOM     11  C   UNL     1       8.225  -2.646  -1.363  1.00  0.00     0.165 A 
ATOM     12  O   UNL     1       8.999  -4.207   0.016  1.00  0.00    -0.454 OA
ATOM     13  O   UNL     1       8.771  -3.683  -2.105  1.00  0.00    -0.454 OA
ATOM     14  C   UNL     1       9.021  -4.800  -1.257  1.00  0.00     0.468 C 
ENDBRANCH   5   6
ENDBRANCH   1   5
TORSDOF 3
ENDMDL
MODEL 4
REMARK VINA RESULT:      -7.1      2.031      2.595
REMARK SMILES CC(=O)CCc1ccc2c(c1)OCO2
REMARK SMILES IDX 4 1 2 2 1 3 3 4 5 5 6 6 7 7 11 8 8 9 10 10 9 11 12 12 14 13
REMARK SMILES IDX 13 14
REMARK H PARENT
REMARK Flexibility Score: inf
ROOT
ATOM      1  C   UNL     1       6.543   0.582   1.281  1.00  0.00     0.080 C 
ENDROOT
BRANCH   1   2
ATOM      2  C   UNL     1       5.169   1.108   1.402  1.00  0.00     0.130 C 
ATOM      3  C   UNL     1       4.710   2.149   0.459  1.00  0.00     0.087 C 
ATOM      4  O   UNL     1       4.449   0.678   2.269  1.00  0.00    -0.300 OA
ENDBRANCH   1   2
BRANCH   1   5
ATOM      5  C   UNL     1       7.106   0.829  -0.103  1.00  0.00     0.043 C 
BRANCH   5   6
ATOM      6  C   UNL     1       7.583  -0.424  -0.696  1.00  0.00    -0.044 A 
ATOM      7  C   UNL     1       7.704  -0.546  -2.065  1.00  0.00     0.008 A 
ATOM      8  C   UNL     1       7.925  -1.518   0.080  1.00  0.00     0.054 A 
ATOM      9  C   UNL     1       8.153  -1.719  -2.667  1.00  0.00     0.051 A 
ATOM     10  C   UNL     1       8.378  -2.704  -0.493  1.00  0.00     0.166 A 
ATOM     11  C   UNL     1       8.488  -2.794  -1.865  1.00  0.00     0.165 A 
ATOM     12  O   UNL     1       8.784  -3.936   0.018  1.00  0.00    -0.454 OA
ATOM     13  O   UNL     1       8.954  -4.065  -2.169  1.00  0.00    -0.454 OA
ATOM     14  C   UNL     1       8.889  -4.889  -1.009  1.00  0.00     0.468 C 
ENDBRANCH   5   6
ENDBRANCH   1   5
TORSDOF 3
ENDMDL
MODEL 5
REMARK VINA RESULT:      -7.1      1.237      5.114
REMARK SMILES CC(=O)CCc1ccc2c(c1)OCO2
REMARK SMILES IDX 4 1 2 2 1 3 3 4 5 5 6 6 7 7 11 8 8 9 10 10 9 11 12 12 14 13
REMARK SMILES IDX 13 14
REMARK H PARENT
REMARK Flexibility Score: inf
ROOT
ATOM      1  C   UNL     1       8.165   0.142  -2.734  1.00  0.00     0.080 C 
ENDROOT
BRANCH   1   2
ATOM      2  C   UNL     1       7.863  -1.303  -2.718  1.00  0.00     0.130 C 
ATOM      3  C   UNL     1       8.961  -2.271  -2.908  1.00  0.00     0.087 C 
ATOM      4  O   UNL     1       6.724  -1.663  -2.550  1.00  0.00    -0.300 OA
ENDBRANCH   1   2
BRANCH   1   5
ATOM      5  C   UNL     1       8.752   0.595  -1.413  1.00  0.00     0.043 C 
BRANCH   5   6
ATOM      6  C   UNL     1       7.756   0.484  -0.343  1.00  0.00    -0.044 A 
ATOM      7  C   UNL     1       7.882  -0.490   0.626  1.00  0.00     0.008 A 
ATOM      8  C   UNL     1       6.669   1.336  -0.262  1.00  0.00     0.054 A 
ATOM      9  C   UNL     1       6.958  -0.630   1.659  1.00  0.00     0.051 A 
ATOM     10  C   UNL     1       5.729   1.220   0.759  1.00  0.00     0.166 A 
ATOM     11  C   UNL     1       5.882   0.236   1.713  1.00  0.00     0.165 A 
ATOM     12  O   UNL     1       4.565   1.913   1.091  1.00  0.00    -0.454 OA
ATOM     13  O   UNL     1       4.822   0.340   2.602  1.00  0.00    -0.454 OA
ATOM     14  C   UNL     1       3.836   1.220   2.071  1.00  0.00     0.468 C 
ENDBRANCH   5   6
ENDBRANCH   1   5
TORSDOF 3
ENDMDL
