@<TRIPOS>MOLECULE
/home/cewinharhar/GITHUB/reincatalyze/data/processed/docking_pred/2023-May-31-1603_sub9_nm5_bs15_s42_ex16_mel10_mts1000_k50_ec05_g099_lra3e-4_lrc9e-3/f3c5d297feb9947f67baa3310bcd1cfc63c32b25_ligand_9.pdbqt
 14 15 0 0 0
SMALL
GASTEIGER

@<TRIPOS>ATOM
      1  C          5.5800    1.8420    1.3330 C.3     1  UNL1        0.0800
      2  C          5.0950    0.6470    2.0530 C.2     1  UNL1        0.1300
      3  C          6.0000   -0.5080    2.2240 C.3     1  UNL1        0.0870
      4  O          3.9700    0.6390    2.4870 O.2     1  UNL1       -0.3000
      5  C          5.4030    1.6910   -0.1640 C.3     1  UNL1        0.0430
      6  C          6.5360    0.9650   -0.7460 C.2     1  UNL1       -0.0440
      7  C          7.8230    1.4290   -0.5720 C.2     1  UNL1        0.0080
      8  C          6.3630   -0.1950   -1.4810 C.2     1  UNL1        0.0540
      9  C          8.9260    0.7700   -1.1100 C.2     1  UNL1        0.0510
     10  C          7.4470   -0.8760   -2.0300 C.2     1  UNL1        0.1660
     11  C          8.7220   -0.3860   -1.8390 C.2     1  UNL1        0.1650
     12  O          7.5790   -2.0350   -2.7940 O.2     1  UNL1       -0.4540
     13  O          9.6040   -1.2430   -2.4820 O.2     1  UNL1       -0.4540
     14  C          8.8780   -2.1390   -3.3180 C.3     1  UNL1        0.4680
@<TRIPOS>BOND
     1    14    12    1
     2    14    13    1
     3    12    10    1
     4    13    11    1
     5    10    11    2
     6    10     8    1
     7    11     9    1
     8     8     6    2
     9     9     7    2
    10     6     7    1
    11     6     5    1
    12     5     1    1
    13     1     2    1
    14     2     3    1
    15     2     4    2
