@<TRIPOS>MOLECULE
/home/cewinharhar/GITHUB/reincatalyze/data/processed/docking_pred/2023-May-31-1603_sub9_nm5_bs15_s42_ex16_mel10_mts1000_k50_ec05_g099_lra3e-4_lrc9e-3/f3c5d297feb9947f67baa3310bcd1cfc63c32b25_ligand_9.pdbqt
 14 15 0 0 0
SMALL
GASTEIGER

@<TRIPOS>ATOM
      1  C          5.2920   -0.0080    1.9660 C.3     1  UNL1        0.0800
      2  C          4.3970    1.1540    1.7920 C.2     1  UNL1        0.1300
      3  C          4.7050    2.1500    0.7460 C.3     1  UNL1        0.0870
      4  O          3.4340    1.2660    2.5090 O.2     1  UNL1       -0.3000
      5  C          6.7470    0.4090    1.9280 C.3     1  UNL1        0.0430
      6  C          7.3720   -0.0140    0.6710 C.2     1  UNL1       -0.0440
      7  C          7.9100    0.9210   -0.1880 C.2     1  UNL1        0.0080
      8  C          7.4450   -1.3460    0.3010 C.2     1  UNL1        0.0540
      9  C          8.5110    0.5600   -1.3920 C.2     1  UNL1        0.0510
     10  C          8.0400   -1.7370   -0.8960 C.2     1  UNL1        0.1660
     11  C          8.5690   -0.7770   -1.7340 C.2     1  UNL1        0.1650
     12  O          8.2550   -2.9660   -1.5170 O.2     1  UNL1       -0.4540
     13  O          9.0930   -1.4270   -2.8420 O.2     1  UNL1       -0.4540
     14  C          8.6630   -2.7860   -2.8490 C.3     1  UNL1        0.4680
@<TRIPOS>BOND
     1    14    13    1
     2    14    12    1
     3    13    11    1
     4    11     9    2
     5    11    10    1
     6    12    10    1
     7     9     7    1
     8    10     8    2
     9     7     6    2
    10     8     6    1
    11     6     5    1
    12     3     2    1
    13     2     1    1
    14     2     4    2
    15     5     1    1
