@<TRIPOS>MOLECULE
/home/cewinharhar/GITHUB/reincatalyze/data/processed/docking_pred/2023-May-31-1603_sub9_nm5_bs15_s42_ex16_mel10_mts1000_k50_ec05_g099_lra3e-4_lrc9e-3/f56adf6440abdf94ed5aca5eaefea0329b307251_ligand_9.pdbqt
 14 15 0 0 0
SMALL
GASTEIGER

@<TRIPOS>ATOM
      1  C          5.4020    0.0050    1.9940 C.3     1  UNL1        0.0800
      2  C          4.5250    1.1700    1.7610 C.2     1  UNL1        0.1300
      3  C          4.8780    2.1370    0.7020 C.3     1  UNL1        0.0870
      4  O          3.5380    1.3070    2.4400 O.2     1  UNL1       -0.3000
      5  C          6.8270    0.2970    1.5690 C.3     1  UNL1        0.0430
      6  C          7.2800   -0.6860    0.5800 C.2     1  UNL1       -0.0440
      7  C          7.1090   -0.4470   -0.7680 C.2     1  UNL1        0.0080
      8  C          7.8870   -1.8730    0.9520 C.2     1  UNL1        0.0540
      9  C          7.5250   -1.3550   -1.7390 C.2     1  UNL1        0.0510
     10  C          8.3140   -2.7990    0.0040 C.2     1  UNL1        0.1660
     11  C          8.1280   -2.5310   -1.3370 C.2     1  UNL1        0.1650
     12  O          8.9380   -4.0440    0.0750 O.2     1  UNL1       -0.4540
     13  O          8.6360   -3.6040   -2.0560 O.2     1  UNL1       -0.4540
     14  C          8.9060   -4.6890   -1.1720 C.3     1  UNL1        0.4680
@<TRIPOS>BOND
     1    13    11    1
     2    13    14    1
     3     9    11    2
     4     9     7    1
     5    11    10    1
     6    14    12    1
     7     7     6    2
     8    10    12    1
     9    10     8    2
    10     6     8    1
    11     6     5    1
    12     3     2    1
    13     5     1    1
    14     2     1    1
    15     2     4    2
