@<TRIPOS>MOLECULE
/home/cewinharhar/GITHUB/reincatalyze/data/processed/docking_pred/2023-May-31-1603_sub9_nm5_bs15_s42_ex16_mel10_mts1000_k50_ec05_g099_lra3e-4_lrc9e-3/f5d21a1fca5b46740ede221944c3c0743e15dd7f_ligand_9.pdbqt
 14 15 0 0 0
SMALL
GASTEIGER

@<TRIPOS>ATOM
      1  C          5.7090    1.4040   -0.3100 C.3     1  UNL1        0.0800
      2  C          5.0560    1.3210    1.0130 C.2     1  UNL1        0.1300
      3  C          5.4290    0.2270    1.9320 C.3     1  UNL1        0.0870
      4  O          4.2320    2.1480    1.3140 O.2     1  UNL1       -0.3000
      5  C          7.2080    1.2230   -0.1940 C.3     1  UNL1        0.0430
      6  C          7.6240   -0.0340   -0.8230 C.2     1  UNL1       -0.0440
      7  C          7.6730   -0.1420   -2.1980 C.2     1  UNL1        0.0080
      8  C          7.9780   -1.1450   -0.0770 C.2     1  UNL1        0.0540
      9  C          8.0620   -1.3180   -2.8340 C.2     1  UNL1        0.0510
     10  C          8.3710   -2.3340   -0.6860 C.2     1  UNL1        0.1660
     11  C          8.4100   -2.4100   -2.0620 C.2     1  UNL1        0.1650
     12  O          8.7730   -3.5820   -0.2090 O.2     1  UNL1       -0.4540
     13  O          8.8290   -3.6880   -2.4030 O.2     1  UNL1       -0.4540
     14  C          8.8030   -4.5250   -1.2500 C.3     1  UNL1        0.4680
@<TRIPOS>BOND
     1     9     7    1
     2     9    11    2
     3    13    11    1
     4    13    14    1
     5     7     6    2
     6    11    10    1
     7    14    12    1
     8     6     5    1
     9     6     8    1
    10    10    12    1
    11    10     8    2
    12     1     5    1
    13     1     2    1
    14     2     4    2
    15     2     3    1
