MODEL 1
REMARK VINA RESULT:      -7.5      0.000      0.000
REMARK SMILES CC(=O)CCc1ccc2c(c1)OCO2
REMARK SMILES IDX 4 1 2 2 1 3 3 4 5 5 6 6 7 7 11 8 8 9 10 10 9 11 12 12 14 13
REMARK SMILES IDX 13 14
REMARK H PARENT
REMARK Flexibility Score: inf
ROOT
ATOM      1  C   UNL     1       5.578   1.900   1.337  1.00  0.00     0.080 C 
ENDROOT
BRANCH   1   2
ATOM      2  C   UNL     1       5.129   0.686   2.048  1.00  0.00     0.130 C 
ATOM      3  C   UNL     1       6.072  -0.436   2.226  1.00  0.00     0.087 C 
ATOM      4  O   UNL     1       4.000   0.636   2.470  1.00  0.00    -0.300 OA
ENDBRANCH   1   2
BRANCH   1   5
ATOM      5  C   UNL     1       5.401   1.756  -0.160  1.00  0.00     0.043 C 
BRANCH   5   6
ATOM      6  C   UNL     1       6.527   1.020  -0.743  1.00  0.00    -0.044 A 
ATOM      7  C   UNL     1       7.821   1.454  -0.543  1.00  0.00     0.008 A 
ATOM      8  C   UNL     1       6.341  -0.120  -1.505  1.00  0.00     0.054 A 
ATOM      9  C   UNL     1       8.917   0.785  -1.080  1.00  0.00     0.051 A 
ATOM     10  C   UNL     1       7.418  -0.811  -2.055  1.00  0.00     0.166 A 
ATOM     11  C   UNL     1       8.700  -0.351  -1.837  1.00  0.00     0.165 A 
ATOM     12  O   UNL     1       7.537  -1.956  -2.843  1.00  0.00    -0.454 OA
ATOM     13  O   UNL     1       9.573  -1.211  -2.487  1.00  0.00    -0.454 OA
ATOM     14  C   UNL     1       8.840  -2.075  -3.352  1.00  0.00     0.468 C 
ENDBRANCH   5   6
ENDBRANCH   1   5
TORSDOF 3
ENDMDL
MODEL 2
REMARK VINA RESULT:      -7.2      1.835      2.267
REMARK SMILES CC(=O)CCc1ccc2c(c1)OCO2
REMARK SMILES IDX 4 1 2 2 1 3 3 4 5 5 6 6 7 7 11 8 8 9 10 10 9 11 12 12 14 13
REMARK SMILES IDX 13 14
REMARK H PARENT
REMARK Flexibility Score: inf
ROOT
ATOM      1  C   UNL     1       5.709   1.404  -0.310  1.00  0.00     0.080 C 
ENDROOT
BRANCH   1   2
ATOM      2  C   UNL     1       5.056   1.321   1.013  1.00  0.00     0.130 C 
ATOM      3  C   UNL     1       5.429   0.227   1.932  1.00  0.00     0.087 C 
ATOM      4  O   UNL     1       4.232   2.148   1.314  1.00  0.00    -0.300 OA
ENDBRANCH   1   2
BRANCH   1   5
ATOM      5  C   UNL     1       7.208   1.223  -0.194  1.00  0.00     0.043 C 
BRANCH   5   6
ATOM      6  C   UNL     1       7.624  -0.034  -0.823  1.00  0.00    -0.044 A 
ATOM      7  C   UNL     1       7.673  -0.142  -2.198  1.00  0.00     0.008 A 
ATOM      8  C   UNL     1       7.978  -1.145  -0.077  1.00  0.00     0.054 A 
ATOM      9  C   UNL     1       8.062  -1.318  -2.834  1.00  0.00     0.051 A 
ATOM     10  C   UNL     1       8.371  -2.334  -0.686  1.00  0.00     0.166 A 
ATOM     11  C   UNL     1       8.410  -2.410  -2.062  1.00  0.00     0.165 A 
ATOM     12  O   UNL     1       8.773  -3.582  -0.209  1.00  0.00    -0.454 OA
ATOM     13  O   UNL     1       8.829  -3.688  -2.403  1.00  0.00    -0.454 OA
ATOM     14  C   UNL     1       8.803  -4.525  -1.250  1.00  0.00     0.468 C 
ENDBRANCH   5   6
ENDBRANCH   1   5
TORSDOF 3
ENDMDL
MODEL 3
REMARK VINA RESULT:      -7.1      2.037      2.613
REMARK SMILES CC(=O)CCc1ccc2c(c1)OCO2
REMARK SMILES IDX 4 1 2 2 1 3 3 4 5 5 6 6 7 7 11 8 8 9 10 10 9 11 12 12 14 13
REMARK SMILES IDX 13 14
REMARK H PARENT
REMARK Flexibility Score: inf
ROOT
ATOM      1  C   UNL     1       5.359  -0.034   1.924  1.00  0.00     0.080 C 
ENDROOT
BRANCH   1   2
ATOM      2  C   UNL     1       4.537   1.179   1.737  1.00  0.00     0.130 C 
ATOM      3  C   UNL     1       4.906   2.143   0.681  1.00  0.00     0.087 C 
ATOM      4  O   UNL     1       3.581   1.356   2.450  1.00  0.00    -0.300 OA
ENDBRANCH   1   2
BRANCH   1   5
ATOM      5  C   UNL     1       6.807   0.223   1.562  1.00  0.00     0.043 C 
BRANCH   5   6
ATOM      6  C   UNL     1       7.257  -0.722   0.536  1.00  0.00    -0.044 A 
ATOM      7  C   UNL     1       7.034  -0.460  -0.800  1.00  0.00     0.008 A 
ATOM      8  C   UNL     1       7.912  -1.897   0.860  1.00  0.00     0.054 A 
ATOM      9  C   UNL     1       7.444  -1.332  -1.804  1.00  0.00     0.051 A 
ATOM     10  C   UNL     1       8.335  -2.789  -0.123  1.00  0.00     0.166 A 
ATOM     11  C   UNL     1       8.096  -2.498  -1.450  1.00  0.00     0.165 A 
ATOM     12  O   UNL     1       8.999  -4.015  -0.101  1.00  0.00    -0.454 OA
ATOM     13  O   UNL     1       8.612  -3.538  -2.210  1.00  0.00    -0.454 OA
ATOM     14  C   UNL     1       8.945  -4.633  -1.361  1.00  0.00     0.468 C 
ENDBRANCH   5   6
ENDBRANCH   1   5
TORSDOF 3
ENDMDL
MODEL 4
REMARK VINA RESULT:      -7.0      1.254      1.431
REMARK SMILES CC(=O)CCc1ccc2c(c1)OCO2
REMARK SMILES IDX 4 1 2 2 1 3 3 4 5 5 6 6 7 7 11 8 8 9 10 10 9 11 12 12 14 13
REMARK SMILES IDX 13 14
REMARK H PARENT
REMARK Flexibility Score: inf
ROOT
ATOM      1  C   UNL     1       6.262   1.276   0.988  1.00  0.00     0.080 C 
ENDROOT
BRANCH   1   2
ATOM      2  C   UNL     1       5.574   0.430   1.984  1.00  0.00     0.130 C 
ATOM      3  C   UNL     1       6.270  -0.753   2.529  1.00  0.00     0.087 C 
ATOM      4  O   UNL     1       4.457   0.723   2.333  1.00  0.00    -0.300 OA
ENDBRANCH   1   2
BRANCH   1   5
ATOM      5  C   UNL     1       5.764   0.987  -0.413  1.00  0.00     0.043 C 
BRANCH   5   6
ATOM      6  C   UNL     1       6.712   0.128  -1.129  1.00  0.00    -0.044 A 
ATOM      7  C   UNL     1       7.368   0.597  -2.249  1.00  0.00     0.008 A 
ATOM      8  C   UNL     1       6.983  -1.165  -0.719  1.00  0.00     0.054 A 
ATOM      9  C   UNL     1       8.275  -0.187  -2.958  1.00  0.00     0.051 A 
ATOM     10  C   UNL     1       7.885  -1.973  -1.408  1.00  0.00     0.166 A 
ATOM     11  C   UNL     1       8.524  -1.475  -2.524  1.00  0.00     0.165 A 
ATOM     12  O   UNL     1       8.346  -3.278  -1.237  1.00  0.00    -0.454 OA
ATOM     13  O   UNL     1       9.357  -2.472  -3.013  1.00  0.00    -0.454 OA
ATOM     14  C   UNL     1       9.054  -3.707  -2.371  1.00  0.00     0.468 C 
ENDBRANCH   5   6
ENDBRANCH   1   5
TORSDOF 3
ENDMDL
MODEL 5
REMARK VINA RESULT:      -6.9      1.212      5.155
REMARK SMILES CC(=O)CCc1ccc2c(c1)OCO2
REMARK SMILES IDX 4 1 2 2 1 3 3 4 5 5 6 6 7 7 11 8 8 9 10 10 9 11 12 12 14 13
REMARK SMILES IDX 13 14
REMARK H PARENT
REMARK Flexibility Score: inf
ROOT
ATOM      1  C   UNL     1       8.271   0.187  -2.654  1.00  0.00     0.080 C 
ENDROOT
BRANCH   1   2
ATOM      2  C   UNL     1       7.971  -1.256  -2.745  1.00  0.00     0.130 C 
ATOM      3  C   UNL     1       9.072  -2.205  -3.008  1.00  0.00     0.087 C 
ATOM      4  O   UNL     1       6.834  -1.630  -2.603  1.00  0.00    -0.300 OA
ENDBRANCH   1   2
BRANCH   1   5
ATOM      5  C   UNL     1       8.837   0.546  -1.295  1.00  0.00     0.043 C 
BRANCH   5   6
ATOM      6  C   UNL     1       7.800   0.452  -0.264  1.00  0.00    -0.044 A 
ATOM      7  C   UNL     1       7.845  -0.553   0.680  1.00  0.00     0.008 A 
ATOM      8  C   UNL     1       6.751   1.352  -0.197  1.00  0.00     0.054 A 
ATOM      9  C   UNL     1       6.879  -0.677   1.675  1.00  0.00     0.051 A 
ATOM     10  C   UNL     1       5.770   1.253   0.787  1.00  0.00     0.166 A 
ATOM     11  C   UNL     1       5.843   0.237   1.717  1.00  0.00     0.165 A 
ATOM     12  O   UNL     1       4.628   1.991   1.097  1.00  0.00    -0.454 OA
ATOM     13  O   UNL     1       4.758   0.367   2.571  1.00  0.00    -0.454 OA
ATOM     14  C   UNL     1       3.833   1.307   2.031  1.00  0.00     0.468 C 
ENDBRANCH   5   6
ENDBRANCH   1   5
TORSDOF 3
ENDMDL
