@<TRIPOS>MOLECULE
/home/cewinharhar/GITHUB/reincatalyze/data/processed/docking_pred/2023-May-31-1603_sub9_nm5_bs15_s42_ex16_mel10_mts1000_k50_ec05_g099_lra3e-4_lrc9e-3/f5d21a1fca5b46740ede221944c3c0743e15dd7f_ligand_9.pdbqt
 14 15 0 0 0
SMALL
GASTEIGER

@<TRIPOS>ATOM
      1  C          5.5780    1.9000    1.3370 C.3     1  UNL1        0.0800
      2  C          5.1290    0.6860    2.0480 C.2     1  UNL1        0.1300
      3  C          6.0720   -0.4360    2.2260 C.3     1  UNL1        0.0870
      4  O          4.0000    0.6360    2.4700 O.2     1  UNL1       -0.3000
      5  C          5.4010    1.7560   -0.1600 C.3     1  UNL1        0.0430
      6  C          6.5270    1.0200   -0.7430 C.2     1  UNL1       -0.0440
      7  C          7.8210    1.4540   -0.5430 C.2     1  UNL1        0.0080
      8  C          6.3410   -0.1200   -1.5050 C.2     1  UNL1        0.0540
      9  C          8.9170    0.7850   -1.0800 C.2     1  UNL1        0.0510
     10  C          7.4180   -0.8110   -2.0550 C.2     1  UNL1        0.1660
     11  C          8.7000   -0.3510   -1.8370 C.2     1  UNL1        0.1650
     12  O          7.5370   -1.9560   -2.8430 O.2     1  UNL1       -0.4540
     13  O          9.5730   -1.2110   -2.4870 O.2     1  UNL1       -0.4540
     14  C          8.8400   -2.0750   -3.3520 C.3     1  UNL1        0.4680
@<TRIPOS>BOND
     1    14    12    1
     2    14    13    1
     3    12    10    1
     4    13    11    1
     5    10    11    2
     6    10     8    1
     7    11     9    1
     8     8     6    2
     9     9     7    2
    10     6     7    1
    11     6     5    1
    12     5     1    1
    13     1     2    1
    14     2     3    1
    15     2     4    2
