@<TRIPOS>MOLECULE
/home/cewinharhar/GITHUB/reincatalyze/data/processed/docking_pred/2023-May-31-1603_sub9_nm5_bs15_s42_ex16_mel10_mts1000_k50_ec05_g099_lra3e-4_lrc9e-3/f5d21a1fca5b46740ede221944c3c0743e15dd7f_ligand_9.pdbqt
 14 15 0 0 0
SMALL
GASTEIGER

@<TRIPOS>ATOM
      1  C          8.2710    0.1870   -2.6540 C.3     1  UNL1        0.0800
      2  C          7.9710   -1.2560   -2.7450 C.2     1  UNL1        0.1300
      3  C          9.0720   -2.2050   -3.0080 C.3     1  UNL1        0.0870
      4  O          6.8340   -1.6300   -2.6030 O.2     1  UNL1       -0.3000
      5  C          8.8370    0.5460   -1.2950 C.3     1  UNL1        0.0430
      6  C          7.8000    0.4520   -0.2640 C.2     1  UNL1       -0.0440
      7  C          7.8450   -0.5530    0.6800 C.2     1  UNL1        0.0080
      8  C          6.7510    1.3520   -0.1970 C.2     1  UNL1        0.0540
      9  C          6.8790   -0.6770    1.6750 C.2     1  UNL1        0.0510
     10  C          5.7700    1.2530    0.7870 C.2     1  UNL1        0.1660
     11  C          5.8430    0.2370    1.7170 C.2     1  UNL1        0.1650
     12  O          4.6280    1.9910    1.0970 O.2     1  UNL1       -0.4540
     13  O          4.7580    0.3670    2.5710 O.2     1  UNL1       -0.4540
     14  C          3.8330    1.3070    2.0310 C.3     1  UNL1        0.4680
@<TRIPOS>BOND
     1     3     2    1
     2     2     1    1
     3     2     4    2
     4     1     5    1
     5     5     6    1
     6     6     8    2
     7     6     7    1
     8     8    10    1
     9     7     9    2
    10    10    12    1
    11    10    11    2
    12    12    14    1
    13     9    11    1
    14    11    13    1
    15    14    13    1
