@<TRIPOS>MOLECULE
/home/cewinharhar/GITHUB/reincatalyze/data/processed/docking_pred/2023-May-31-1603_sub9_nm5_bs15_s42_ex16_mel10_mts1000_k50_ec05_g099_lra3e-4_lrc9e-3/f5d21a1fca5b46740ede221944c3c0743e15dd7f_ligand_9.pdbqt
 14 15 0 0 0
SMALL
GASTEIGER

@<TRIPOS>ATOM
      1  C          6.2620    1.2760    0.9880 C.3     1  UNL1        0.0800
      2  C          5.5740    0.4300    1.9840 C.2     1  UNL1        0.1300
      3  C          6.2700   -0.7530    2.5290 C.3     1  UNL1        0.0870
      4  O          4.4570    0.7230    2.3330 O.2     1  UNL1       -0.3000
      5  C          5.7640    0.9870   -0.4130 C.3     1  UNL1        0.0430
      6  C          6.7120    0.1280   -1.1290 C.2     1  UNL1       -0.0440
      7  C          7.3680    0.5970   -2.2490 C.2     1  UNL1        0.0080
      8  C          6.9830   -1.1650   -0.7190 C.2     1  UNL1        0.0540
      9  C          8.2750   -0.1870   -2.9580 C.2     1  UNL1        0.0510
     10  C          7.8850   -1.9730   -1.4080 C.2     1  UNL1        0.1660
     11  C          8.5240   -1.4750   -2.5240 C.2     1  UNL1        0.1650
     12  O          8.3460   -3.2780   -1.2370 O.2     1  UNL1       -0.4540
     13  O          9.3570   -2.4720   -3.0130 O.2     1  UNL1       -0.4540
     14  C          9.0540   -3.7070   -2.3710 C.3     1  UNL1        0.4680
@<TRIPOS>BOND
     1    13    11    1
     2    13    14    1
     3     9    11    2
     4     9     7    1
     5    11    10    1
     6    14    12    1
     7     7     6    2
     8    10    12    1
     9    10     8    2
    10     6     8    1
    11     6     5    1
    12     5     1    1
    13     1     2    1
    14     2     4    2
    15     2     3    1
