@<TRIPOS>MOLECULE
/home/cewinharhar/GITHUB/reincatalyze/data/processed/docking_pred/2023-May-31-1603_sub9_nm5_bs15_s42_ex16_mel10_mts1000_k50_ec05_g099_lra3e-4_lrc9e-3/f5fb071253116e33fb6a6057d91faa3d89d34546_ligand_9.pdbqt
 14 15 0 0 0
SMALL
GASTEIGER

@<TRIPOS>ATOM
      1  C          9.7270    1.3080    2.6400 C.3     1  UNL1        0.0800
      2  C         11.1600    0.9540    2.6680 C.2     1  UNL1        0.1300
      3  C         12.0750    1.7160    3.5410 C.3     1  UNL1        0.0870
      4  O         11.5550    0.0480    1.9760 O.2     1  UNL1       -0.3000
      5  C          9.3670    2.0400    1.3640 C.3     1  UNL1        0.0430
      6  C          8.6430    1.1540    0.4480 C.2     1  UNL1       -0.0440
      7  C          7.2940    0.9240    0.6230 C.2     1  UNL1        0.0080
      8  C          9.2710    0.5210   -0.6100 C.2     1  UNL1        0.0540
      9  C          6.5690    0.0890   -0.2230 C.2     1  UNL1        0.0510
     10  C          8.5730   -0.3200   -1.4730 C.2     1  UNL1        0.1660
     11  C          7.2250   -0.5290   -1.2710 C.2     1  UNL1        0.1650
     12  O          8.9270   -1.0720   -2.5930 O.2     1  UNL1       -0.4540
     13  O          6.7800   -1.3960   -2.2590 O.2     1  UNL1       -0.4540
     14  C          7.8970   -1.9620   -2.9390 C.3     1  UNL1        0.4680
@<TRIPOS>BOND
     1    14    12    1
     2    14    13    1
     3    12    10    1
     4    13    11    1
     5    10    11    2
     6    10     8    1
     7    11     9    1
     8     8     6    2
     9     9     7    2
    10     6     7    1
    11     6     5    1
    12     5     1    1
    13     4     2    2
    14     1     2    1
    15     2     3    1
