MODEL 1
REMARK VINA RESULT:      -7.2      0.000      0.000
REMARK SMILES CC(=O)CCc1ccc2c(c1)OCO2
REMARK SMILES IDX 4 1 2 2 1 3 3 4 5 5 6 6 7 7 11 8 8 9 10 10 9 11 12 12 14 13
REMARK SMILES IDX 13 14
REMARK H PARENT
REMARK Flexibility Score: inf
ROOT
ATOM      1  C   UNL     1       5.822   0.361   1.495  1.00  0.00     0.080 C 
ENDROOT
BRANCH   1   2
ATOM      2  C   UNL     1       4.926   1.458   1.078  1.00  0.00     0.130 C 
ATOM      3  C   UNL     1       5.163   2.130  -0.215  1.00  0.00     0.087 C 
ATOM      4  O   UNL     1       4.017   1.782   1.802  1.00  0.00    -0.300 OA
ENDBRANCH   1   2
BRANCH   1   5
ATOM      5  C   UNL     1       7.026   0.259   0.582  1.00  0.00     0.043 C 
BRANCH   5   6
ATOM      6  C   UNL     1       8.254   0.587   1.311  1.00  0.00    -0.044 A 
ATOM      7  C   UNL     1       8.275   1.640   2.202  1.00  0.00     0.008 A 
ATOM      8  C   UNL     1       9.424  -0.132   1.138  1.00  0.00     0.054 A 
ATOM      9  C   UNL     1       9.421   1.985   2.914  1.00  0.00     0.051 A 
ATOM     10  C   UNL     1      10.585   0.189   1.836  1.00  0.00     0.166 A 
ATOM     11  C   UNL     1      10.573   1.248   2.720  1.00  0.00     0.165 A 
ATOM     12  O   UNL     1      11.876  -0.338   1.868  1.00  0.00    -0.454 OA
ATOM     13  O   UNL     1      11.842   1.351   3.273  1.00  0.00    -0.454 OA
ATOM     14  C   UNL     1      12.750   0.528   2.546  1.00  0.00     0.468 C 
ENDBRANCH   5   6
ENDBRANCH   1   5
TORSDOF 3
ENDMDL
MODEL 2
REMARK VINA RESULT:      -7.1      2.737      5.470
REMARK SMILES CC(=O)CCc1ccc2c(c1)OCO2
REMARK SMILES IDX 4 1 2 2 1 3 3 4 5 5 6 6 7 7 11 8 8 9 10 10 9 11 12 12 14 13
REMARK SMILES IDX 13 14
REMARK H PARENT
REMARK Flexibility Score: inf
ROOT
ATOM      1  C   UNL     1       9.727   1.308   2.640  1.00  0.00     0.080 C 
ENDROOT
BRANCH   1   2
ATOM      2  C   UNL     1      11.160   0.954   2.668  1.00  0.00     0.130 C 
ATOM      3  C   UNL     1      12.075   1.716   3.541  1.00  0.00     0.087 C 
ATOM      4  O   UNL     1      11.555   0.048   1.976  1.00  0.00    -0.300 OA
ENDBRANCH   1   2
BRANCH   1   5
ATOM      5  C   UNL     1       9.367   2.040   1.364  1.00  0.00     0.043 C 
BRANCH   5   6
ATOM      6  C   UNL     1       8.643   1.154   0.448  1.00  0.00    -0.044 A 
ATOM      7  C   UNL     1       7.294   0.924   0.623  1.00  0.00     0.008 A 
ATOM      8  C   UNL     1       9.271   0.521  -0.610  1.00  0.00     0.054 A 
ATOM      9  C   UNL     1       6.569   0.089  -0.223  1.00  0.00     0.051 A 
ATOM     10  C   UNL     1       8.573  -0.320  -1.473  1.00  0.00     0.166 A 
ATOM     11  C   UNL     1       7.225  -0.529  -1.271  1.00  0.00     0.165 A 
ATOM     12  O   UNL     1       8.927  -1.072  -2.593  1.00  0.00    -0.454 OA
ATOM     13  O   UNL     1       6.780  -1.396  -2.259  1.00  0.00    -0.454 OA
ATOM     14  C   UNL     1       7.897  -1.962  -2.939  1.00  0.00     0.468 C 
ENDBRANCH   5   6
ENDBRANCH   1   5
TORSDOF 3
ENDMDL
MODEL 3
REMARK VINA RESULT:      -7.0      3.431      4.405
REMARK SMILES CC(=O)CCc1ccc2c(c1)OCO2
REMARK SMILES IDX 4 1 2 2 1 3 3 4 5 5 6 6 7 7 11 8 8 9 10 10 9 11 12 12 14 13
REMARK SMILES IDX 13 14
REMARK H PARENT
REMARK Flexibility Score: inf
ROOT
ATOM      1  C   UNL     1       5.579   1.848   1.359  1.00  0.00     0.080 C 
ENDROOT
BRANCH   1   2
ATOM      2  C   UNL     1       5.072   0.649   2.057  1.00  0.00     0.130 C 
ATOM      3  C   UNL     1       5.960  -0.521   2.217  1.00  0.00     0.087 C 
ATOM      4  O   UNL     1       3.944   0.650   2.484  1.00  0.00    -0.300 OA
ENDBRANCH   1   2
BRANCH   1   5
ATOM      5  C   UNL     1       5.408   1.722  -0.141  1.00  0.00     0.043 C 
BRANCH   5   6
ATOM      6  C   UNL     1       6.535   0.992  -0.728  1.00  0.00    -0.044 A 
ATOM      7  C   UNL     1       7.829   1.424  -0.522  1.00  0.00     0.008 A 
ATOM      8  C   UNL     1       6.351  -0.142  -1.500  1.00  0.00     0.054 A 
ATOM      9  C   UNL     1       8.926   0.760  -1.062  1.00  0.00     0.051 A 
ATOM     10  C   UNL     1       7.429  -0.828  -2.053  1.00  0.00     0.166 A 
ATOM     11  C   UNL     1       8.711  -0.370  -1.829  1.00  0.00     0.165 A 
ATOM     12  O   UNL     1       7.550  -1.966  -2.850  1.00  0.00    -0.454 OA
ATOM     13  O   UNL     1       9.585  -1.224  -2.484  1.00  0.00    -0.454 OA
ATOM     14  C   UNL     1       8.855  -2.081  -3.358  1.00  0.00     0.468 C 
ENDBRANCH   5   6
ENDBRANCH   1   5
TORSDOF 3
ENDMDL
MODEL 4
REMARK VINA RESULT:      -6.9      1.108      1.664
REMARK SMILES CC(=O)CCc1ccc2c(c1)OCO2
REMARK SMILES IDX 4 1 2 2 1 3 3 4 5 5 6 6 7 7 11 8 8 9 10 10 9 11 12 12 14 13
REMARK SMILES IDX 13 14
REMARK H PARENT
REMARK Flexibility Score: inf
ROOT
ATOM      1  C   UNL     1       5.725   0.268   1.455  1.00  0.00     0.080 C 
ENDROOT
BRANCH   1   2
ATOM      2  C   UNL     1       4.941   1.453   1.051  1.00  0.00     0.130 C 
ATOM      3  C   UNL     1       5.230   2.101  -0.244  1.00  0.00     0.087 C 
ATOM      4  O   UNL     1       4.081   1.868   1.788  1.00  0.00    -0.300 OA
ENDBRANCH   1   2
BRANCH   1   5
ATOM      5  C   UNL     1       6.712  -0.130   0.378  1.00  0.00     0.043 C 
BRANCH   5   6
ATOM      6  C   UNL     1       8.055   0.361   0.703  1.00  0.00    -0.044 A 
ATOM      7  C   UNL     1       8.994   0.532  -0.292  1.00  0.00     0.008 A 
ATOM      8  C   UNL     1       8.428   0.666   2.001  1.00  0.00     0.054 A 
ATOM      9  C   UNL     1      10.280   0.995  -0.025  1.00  0.00     0.051 A 
ATOM     10  C   UNL     1       9.707   1.131   2.299  1.00  0.00     0.166 A 
ATOM     11  C   UNL     1      10.624   1.291   1.281  1.00  0.00     0.165 A 
ATOM     12  O   UNL     1      10.352   1.510   3.475  1.00  0.00    -0.454 OA
ATOM     13  O   UNL     1      11.802   1.760   1.844  1.00  0.00    -0.454 OA
ATOM     14  C   UNL     1      11.734   1.646   3.263  1.00  0.00     0.468 C 
ENDBRANCH   5   6
ENDBRANCH   1   5
TORSDOF 3
ENDMDL
MODEL 5
REMARK VINA RESULT:      -6.9      1.357      2.253
REMARK SMILES CC(=O)CCc1ccc2c(c1)OCO2
REMARK SMILES IDX 4 1 2 2 1 3 3 4 5 5 6 6 7 7 11 8 8 9 10 10 9 11 12 12 14 13
REMARK SMILES IDX 13 14
REMARK H PARENT
REMARK Flexibility Score: inf
ROOT
ATOM      1  C   UNL     1       5.736   0.754   0.305  1.00  0.00     0.080 C 
ENDROOT
BRANCH   1   2
ATOM      2  C   UNL     1       5.476   0.162   1.633  1.00  0.00     0.130 C 
ATOM      3  C   UNL     1       6.245  -1.027   2.054  1.00  0.00     0.087 C 
ATOM      4  O   UNL     1       4.641   0.660   2.346  1.00  0.00    -0.300 OA
ENDBRANCH   1   2
BRANCH   1   5
ATOM      5  C   UNL     1       6.467   2.076   0.428  1.00  0.00     0.043 C 
BRANCH   5   6
ATOM      6  C   UNL     1       7.885   1.854   0.727  1.00  0.00    -0.044 A 
ATOM      7  C   UNL     1       8.727   1.336  -0.235  1.00  0.00     0.008 A 
ATOM      8  C   UNL     1       8.427   2.150   1.966  1.00  0.00     0.054 A 
ATOM      9  C   UNL     1      10.079   1.109   0.010  1.00  0.00     0.051 A 
ATOM     10  C   UNL     1       9.775   1.935   2.239  1.00  0.00     0.166 A 
ATOM     11  C   UNL     1      10.591   1.415   1.256  1.00  0.00     0.165 A 
ATOM     12  O   UNL     1      10.582   2.131   3.360  1.00  0.00    -0.454 OA
ATOM     13  O   UNL     1      11.869   1.302   1.785  1.00  0.00    -0.454 OA
ATOM     14  C   UNL     1      11.824   1.496   3.196  1.00  0.00     0.468 C 
ENDBRANCH   5   6
ENDBRANCH   1   5
TORSDOF 3
ENDMDL
