@<TRIPOS>MOLECULE
/home/cewinharhar/GITHUB/reincatalyze/data/processed/docking_pred/2023-May-31-1603_sub9_nm5_bs15_s42_ex16_mel10_mts1000_k50_ec05_g099_lra3e-4_lrc9e-3/f6e3ea477952fa895fac814ddb6280364cb1460b_ligand_9.pdbqt
 14 15 0 0 0
SMALL
GASTEIGER

@<TRIPOS>ATOM
      1  C          6.5690    1.4330    0.2960 C.3     1  UNL1        0.0800
      2  C          5.4560    1.2790    1.2540 C.2     1  UNL1        0.1300
      3  C          5.3880    0.0630    2.0900 C.3     1  UNL1        0.0870
      4  O          4.6250    2.1500    1.3350 O.2     1  UNL1       -0.3000
      5  C          6.1710    0.9610   -1.0870 C.3     1  UNL1        0.0430
      6  C          6.9800   -0.1930   -1.4900 C.2     1  UNL1       -0.0440
      7  C          7.4830   -0.2790   -2.7710 C.2     1  UNL1        0.0080
      8  C          7.2650   -1.2280   -0.6160 C.2     1  UNL1        0.0540
      9  C          8.2540   -1.3590   -3.1930 C.2     1  UNL1        0.0510
     10  C          8.0340   -2.3200   -1.0090 C.2     1  UNL1        0.1660
     11  C          8.5230   -2.3760   -2.2970 C.2     1  UNL1        0.1650
     12  O          8.4750   -3.4780   -0.3680 O.2     1  UNL1       -0.4540
     13  O          9.2460   -3.5540   -2.4240 O.2     1  UNL1       -0.4540
     14  C          9.0000   -4.3910   -1.2980 C.3     1  UNL1        0.4680
@<TRIPOS>BOND
     1     9     7    1
     2     9    11    2
     3     7     6    2
     4    13    11    1
     5    13    14    1
     6    11    10    1
     7     6     5    1
     8     6     8    1
     9    14    12    1
    10     5     1    1
    11    10     8    2
    12    10    12    1
    13     1     2    1
    14     2     4    2
    15     2     3    1
