@<TRIPOS>MOLECULE
/home/cewinharhar/GITHUB/reincatalyze/data/processed/docking_pred/2023-May-31-1603_sub9_nm5_bs15_s42_ex16_mel10_mts1000_k50_ec05_g099_lra3e-4_lrc9e-3/f6e3ea477952fa895fac814ddb6280364cb1460b_ligand_9.pdbqt
 14 15 0 0 0
SMALL
GASTEIGER

@<TRIPOS>ATOM
      1  C          6.7310    0.6320    1.0770 C.3     1  UNL1        0.0800
      2  C          5.3650    1.0990    1.3880 C.2     1  UNL1        0.1300
      3  C          4.7550    2.1500    0.5490 C.3     1  UNL1        0.0870
      4  O          4.7760    0.6130    2.3210 O.2     1  UNL1       -0.3000
      5  C          7.0330    0.7640   -0.4010 C.3     1  UNL1        0.0430
      6  C          7.5520   -0.4980   -0.9360 C.2     1  UNL1       -0.0440
      7  C          7.7020   -0.6690   -2.2970 C.2     1  UNL1        0.0080
      8  C          7.9050   -1.5520   -0.1120 C.2     1  UNL1        0.0540
      9  C          8.1900   -1.8520   -2.8450 C.2     1  UNL1        0.0510
     10  C          8.3970   -2.7480   -0.6310 C.2     1  UNL1        0.1660
     11  C          8.5350   -2.8870   -1.9970 C.2     1  UNL1        0.1650
     12  O          8.8230   -3.9490   -0.0660 O.2     1  UNL1       -0.4540
     13  O          9.0370   -4.1570   -2.2430 O.2     1  UNL1       -0.4540
     14  C          8.9700   -4.9380   -1.0530 C.3     1  UNL1        0.4680
@<TRIPOS>BOND
     1     9     7    1
     2     9    11    2
     3     7     6    2
     4    13    11    1
     5    13    14    1
     6    11    10    1
     7    14    12    1
     8     6     5    1
     9     6     8    1
    10    10     8    2
    11    10    12    1
    12     5     1    1
    13     3     2    1
    14     1     2    1
    15     2     4    2
