@<TRIPOS>MOLECULE
/home/cewinharhar/GITHUB/reincatalyze/data/processed/docking_pred/2023-May-31-1603_sub9_nm5_bs15_s42_ex16_mel10_mts1000_k50_ec05_g099_lra3e-4_lrc9e-3/f6e3ea477952fa895fac814ddb6280364cb1460b_ligand_9.pdbqt
 14 15 0 0 0
SMALL
GASTEIGER

@<TRIPOS>ATOM
      1  C          6.2640    1.2900    0.9740 C.3     1  UNL1        0.0800
      2  C          5.5720    0.4500    1.9710 C.2     1  UNL1        0.1300
      3  C          6.2640   -0.7320    2.5230 C.3     1  UNL1        0.0870
      4  O          4.4540    0.7460    2.3150 O.2     1  UNL1       -0.3000
      5  C          5.7670    1.0020   -0.4270 C.3     1  UNL1        0.0430
      6  C          6.7160    0.1450   -1.1450 C.2     1  UNL1       -0.0440
      7  C          7.3780    0.6190   -2.2580 C.2     1  UNL1        0.0080
      8  C          6.9800   -1.1520   -0.7420 C.2     1  UNL1        0.0540
      9  C          8.2860   -0.1620   -2.9670 C.2     1  UNL1        0.0510
     10  C          7.8830   -1.9570   -1.4310 C.2     1  UNL1        0.1660
     11  C          8.5300   -1.4540   -2.5410 C.2     1  UNL1        0.1650
     12  O          8.3400   -3.2650   -1.2660 O.2     1  UNL1       -0.4540
     13  O          9.3620   -2.4500   -3.0320 O.2     1  UNL1       -0.4540
     14  C          9.0520   -3.6890   -2.4000 C.3     1  UNL1        0.4680
@<TRIPOS>BOND
     1    13    11    1
     2    13    14    1
     3     9    11    2
     4     9     7    1
     5    11    10    1
     6    14    12    1
     7     7     6    2
     8    10    12    1
     9    10     8    2
    10     6     8    1
    11     6     5    1
    12     5     1    1
    13     1     2    1
    14     2     4    2
    15     2     3    1
