MODEL 1
REMARK VINA RESULT:      -7.4      0.000      0.000
REMARK SMILES CC(=O)CCc1ccc2c(c1)OCO2
REMARK SMILES IDX 4 1 2 2 1 3 3 4 5 5 6 6 7 7 11 8 8 9 10 10 9 11 12 12 14 13
REMARK SMILES IDX 13 14
REMARK H PARENT
REMARK Flexibility Score: inf
ROOT
ATOM      1  C   UNL     1       5.591   1.843   1.337  1.00  0.00     0.080 C 
ENDROOT
BRANCH   1   2
ATOM      2  C   UNL     1       5.131   0.640   2.059  1.00  0.00     0.130 C 
ATOM      3  C   UNL     1       6.061  -0.495   2.234  1.00  0.00     0.087 C 
ATOM      4  O   UNL     1       4.006   0.608   2.492  1.00  0.00    -0.300 OA
ENDBRANCH   1   2
BRANCH   1   5
ATOM      5  C   UNL     1       5.407   1.689  -0.159  1.00  0.00     0.043 C 
BRANCH   5   6
ATOM      6  C   UNL     1       6.539   0.965  -0.744  1.00  0.00    -0.044 A 
ATOM      7  C   UNL     1       7.829   1.417  -0.555  1.00  0.00     0.008 A 
ATOM      8  C   UNL     1       6.364  -0.181  -1.499  1.00  0.00     0.054 A 
ATOM      9  C   UNL     1       8.931   0.759  -1.095  1.00  0.00     0.051 A 
ATOM     10  C   UNL     1       7.447  -0.861  -2.052  1.00  0.00     0.166 A 
ATOM     11  C   UNL     1       8.724  -0.383  -1.844  1.00  0.00     0.165 A 
ATOM     12  O   UNL     1       7.577  -2.009  -2.834  1.00  0.00    -0.454 OA
ATOM     13  O   UNL     1       9.605  -1.235  -2.495  1.00  0.00    -0.454 OA
ATOM     14  C   UNL     1       8.878  -2.113  -3.350  1.00  0.00     0.468 C 
ENDBRANCH   5   6
ENDBRANCH   1   5
TORSDOF 3
ENDMDL
MODEL 2
REMARK VINA RESULT:      -7.1      1.680      2.138
REMARK SMILES CC(=O)CCc1ccc2c(c1)OCO2
REMARK SMILES IDX 4 1 2 2 1 3 3 4 5 5 6 6 7 7 11 8 8 9 10 10 9 11 12 12 14 13
REMARK SMILES IDX 13 14
REMARK H PARENT
REMARK Flexibility Score: inf
ROOT
ATOM      1  C   UNL     1       6.569   1.433   0.296  1.00  0.00     0.080 C 
ENDROOT
BRANCH   1   2
ATOM      2  C   UNL     1       5.456   1.279   1.254  1.00  0.00     0.130 C 
ATOM      3  C   UNL     1       5.388   0.063   2.090  1.00  0.00     0.087 C 
ATOM      4  O   UNL     1       4.625   2.150   1.335  1.00  0.00    -0.300 OA
ENDBRANCH   1   2
BRANCH   1   5
ATOM      5  C   UNL     1       6.171   0.961  -1.087  1.00  0.00     0.043 C 
BRANCH   5   6
ATOM      6  C   UNL     1       6.980  -0.193  -1.490  1.00  0.00    -0.044 A 
ATOM      7  C   UNL     1       7.483  -0.279  -2.771  1.00  0.00     0.008 A 
ATOM      8  C   UNL     1       7.265  -1.228  -0.616  1.00  0.00     0.054 A 
ATOM      9  C   UNL     1       8.254  -1.359  -3.193  1.00  0.00     0.051 A 
ATOM     10  C   UNL     1       8.034  -2.320  -1.009  1.00  0.00     0.166 A 
ATOM     11  C   UNL     1       8.523  -2.376  -2.297  1.00  0.00     0.165 A 
ATOM     12  O   UNL     1       8.475  -3.478  -0.368  1.00  0.00    -0.454 OA
ATOM     13  O   UNL     1       9.246  -3.554  -2.424  1.00  0.00    -0.454 OA
ATOM     14  C   UNL     1       9.000  -4.391  -1.298  1.00  0.00     0.468 C 
ENDBRANCH   5   6
ENDBRANCH   1   5
TORSDOF 3
ENDMDL
MODEL 3
REMARK VINA RESULT:      -7.1      2.014      2.589
REMARK SMILES CC(=O)CCc1ccc2c(c1)OCO2
REMARK SMILES IDX 4 1 2 2 1 3 3 4 5 5 6 6 7 7 11 8 8 9 10 10 9 11 12 12 14 13
REMARK SMILES IDX 13 14
REMARK H PARENT
REMARK Flexibility Score: inf
ROOT
ATOM      1  C   UNL     1       5.359  -0.034   1.924  1.00  0.00     0.080 C 
ENDROOT
BRANCH   1   2
ATOM      2  C   UNL     1       4.537   1.179   1.737  1.00  0.00     0.130 C 
ATOM      3  C   UNL     1       4.906   2.143   0.681  1.00  0.00     0.087 C 
ATOM      4  O   UNL     1       3.581   1.356   2.450  1.00  0.00    -0.300 OA
ENDBRANCH   1   2
BRANCH   1   5
ATOM      5  C   UNL     1       6.807   0.223   1.562  1.00  0.00     0.043 C 
BRANCH   5   6
ATOM      6  C   UNL     1       7.257  -0.722   0.536  1.00  0.00    -0.044 A 
ATOM      7  C   UNL     1       7.034  -0.460  -0.800  1.00  0.00     0.008 A 
ATOM      8  C   UNL     1       7.912  -1.897   0.860  1.00  0.00     0.054 A 
ATOM      9  C   UNL     1       7.444  -1.332  -1.804  1.00  0.00     0.051 A 
ATOM     10  C   UNL     1       8.335  -2.789  -0.123  1.00  0.00     0.166 A 
ATOM     11  C   UNL     1       8.096  -2.498  -1.450  1.00  0.00     0.165 A 
ATOM     12  O   UNL     1       8.999  -4.015  -0.101  1.00  0.00    -0.454 OA
ATOM     13  O   UNL     1       8.612  -3.538  -2.210  1.00  0.00    -0.454 OA
ATOM     14  C   UNL     1       8.945  -4.633  -1.361  1.00  0.00     0.468 C 
ENDBRANCH   5   6
ENDBRANCH   1   5
TORSDOF 3
ENDMDL
MODEL 4
REMARK VINA RESULT:      -7.0      1.227      1.384
REMARK SMILES CC(=O)CCc1ccc2c(c1)OCO2
REMARK SMILES IDX 4 1 2 2 1 3 3 4 5 5 6 6 7 7 11 8 8 9 10 10 9 11 12 12 14 13
REMARK SMILES IDX 13 14
REMARK H PARENT
REMARK Flexibility Score: inf
ROOT
ATOM      1  C   UNL     1       6.264   1.290   0.974  1.00  0.00     0.080 C 
ENDROOT
BRANCH   1   2
ATOM      2  C   UNL     1       5.572   0.450   1.971  1.00  0.00     0.130 C 
ATOM      3  C   UNL     1       6.264  -0.732   2.523  1.00  0.00     0.087 C 
ATOM      4  O   UNL     1       4.454   0.746   2.315  1.00  0.00    -0.300 OA
ENDBRANCH   1   2
BRANCH   1   5
ATOM      5  C   UNL     1       5.767   1.002  -0.427  1.00  0.00     0.043 C 
BRANCH   5   6
ATOM      6  C   UNL     1       6.716   0.145  -1.145  1.00  0.00    -0.044 A 
ATOM      7  C   UNL     1       7.378   0.619  -2.258  1.00  0.00     0.008 A 
ATOM      8  C   UNL     1       6.980  -1.152  -0.742  1.00  0.00     0.054 A 
ATOM      9  C   UNL     1       8.286  -0.162  -2.967  1.00  0.00     0.051 A 
ATOM     10  C   UNL     1       7.883  -1.957  -1.431  1.00  0.00     0.166 A 
ATOM     11  C   UNL     1       8.530  -1.454  -2.541  1.00  0.00     0.165 A 
ATOM     12  O   UNL     1       8.340  -3.265  -1.266  1.00  0.00    -0.454 OA
ATOM     13  O   UNL     1       9.362  -2.450  -3.032  1.00  0.00    -0.454 OA
ATOM     14  C   UNL     1       9.052  -3.689  -2.400  1.00  0.00     0.468 C 
ENDBRANCH   5   6
ENDBRANCH   1   5
TORSDOF 3
ENDMDL
MODEL 5
REMARK VINA RESULT:      -6.9      1.978      2.598
REMARK SMILES CC(=O)CCc1ccc2c(c1)OCO2
REMARK SMILES IDX 4 1 2 2 1 3 3 4 5 5 6 6 7 7 11 8 8 9 10 10 9 11 12 12 14 13
REMARK SMILES IDX 13 14
REMARK H PARENT
REMARK Flexibility Score: inf
ROOT
ATOM      1  C   UNL     1       6.731   0.632   1.077  1.00  0.00     0.080 C 
ENDROOT
BRANCH   1   2
ATOM      2  C   UNL     1       5.365   1.099   1.388  1.00  0.00     0.130 C 
ATOM      3  C   UNL     1       4.755   2.150   0.549  1.00  0.00     0.087 C 
ATOM      4  O   UNL     1       4.776   0.613   2.321  1.00  0.00    -0.300 OA
ENDBRANCH   1   2
BRANCH   1   5
ATOM      5  C   UNL     1       7.033   0.764  -0.401  1.00  0.00     0.043 C 
BRANCH   5   6
ATOM      6  C   UNL     1       7.552  -0.498  -0.936  1.00  0.00    -0.044 A 
ATOM      7  C   UNL     1       7.702  -0.669  -2.297  1.00  0.00     0.008 A 
ATOM      8  C   UNL     1       7.905  -1.552  -0.112  1.00  0.00     0.054 A 
ATOM      9  C   UNL     1       8.190  -1.852  -2.845  1.00  0.00     0.051 A 
ATOM     10  C   UNL     1       8.397  -2.748  -0.631  1.00  0.00     0.166 A 
ATOM     11  C   UNL     1       8.535  -2.887  -1.997  1.00  0.00     0.165 A 
ATOM     12  O   UNL     1       8.823  -3.949  -0.066  1.00  0.00    -0.454 OA
ATOM     13  O   UNL     1       9.037  -4.157  -2.243  1.00  0.00    -0.454 OA
ATOM     14  C   UNL     1       8.970  -4.938  -1.053  1.00  0.00     0.468 C 
ENDBRANCH   5   6
ENDBRANCH   1   5
TORSDOF 3
ENDMDL
