@<TRIPOS>MOLECULE
/home/cewinharhar/GITHUB/reincatalyze/data/processed/docking_pred/2023-May-31-1603_sub9_nm5_bs15_s42_ex16_mel10_mts1000_k50_ec05_g099_lra3e-4_lrc9e-3/f74925e0f2dbd9eb14447f51d5c862455f02ecd6_ligand_9.pdbqt
 14 15 0 0 0
SMALL
GASTEIGER

@<TRIPOS>ATOM
      1  C          6.2510    1.2550    0.9850 C.3     1  UNL1        0.0800
      2  C          5.5710    0.4080    1.9850 C.2     1  UNL1        0.1300
      3  C          6.2670   -0.7830    2.5120 C.3     1  UNL1        0.0870
      4  O          4.4610    0.7060    2.3510 O.2     1  UNL1       -0.3000
      5  C          5.7520    0.9590   -0.4150 C.3     1  UNL1        0.0430
      6  C          6.7080    0.1110   -1.1330 C.2     1  UNL1       -0.0440
      7  C          7.3690    0.5930   -2.2450 C.2     1  UNL1        0.0080
      8  C          6.9820   -1.1850   -0.7340 C.2     1  UNL1        0.0540
      9  C          8.2830   -0.1800   -2.9550 C.2     1  UNL1        0.0510
     10  C          7.8910   -1.9820   -1.4240 C.2     1  UNL1        0.1660
     11  C          8.5350   -1.4710   -2.5320 C.2     1  UNL1        0.1650
     12  O          8.3570   -3.2860   -1.2630 O.2     1  UNL1       -0.4540
     13  O          9.3750   -2.4590   -3.0250 O.2     1  UNL1       -0.4540
     14  C          9.0740   -3.7020   -2.3970 C.3     1  UNL1        0.4680
@<TRIPOS>BOND
     1    13    11    1
     2    13    14    1
     3     9    11    2
     4     9     7    1
     5    11    10    1
     6    14    12    1
     7     7     6    2
     8    10    12    1
     9    10     8    2
    10     6     8    1
    11     6     5    1
    12     5     1    1
    13     1     2    1
    14     2     4    2
    15     2     3    1
