@<TRIPOS>MOLECULE
/home/cewinharhar/GITHUB/reincatalyze/data/processed/docking_pred/2023-May-31-1603_sub9_nm5_bs15_s42_ex16_mel10_mts1000_k50_ec05_g099_lra3e-4_lrc9e-3/f74925e0f2dbd9eb14447f51d5c862455f02ecd6_ligand_9.pdbqt
 14 15 0 0 0
SMALL
GASTEIGER

@<TRIPOS>ATOM
      1  C          5.3960   -0.0730    1.7780 C.3     1  UNL1        0.0800
      2  C          4.6490    1.1860    1.5830 C.2     1  UNL1        0.1300
      3  C          5.0730    2.1180    0.5180 C.3     1  UNL1        0.0870
      4  O          3.7070    1.4270    2.2970 O.2     1  UNL1       -0.3000
      5  C          6.8760    0.1210    1.5200 C.3     1  UNL1        0.0430
      6  C          7.3580   -0.8470    0.5310 C.2     1  UNL1       -0.0440
      7  C          7.2380   -0.5840   -0.8180 C.2     1  UNL1        0.0080
      8  C          7.9420   -2.0450    0.9030 C.2     1  UNL1        0.0540
      9  C          7.6820   -1.4780   -1.7890 C.2     1  UNL1        0.0510
     10  C          8.3960   -2.9590   -0.0450 C.2     1  UNL1        0.1660
     11  C          8.2610   -2.6660   -1.3860 C.2     1  UNL1        0.1650
     12  O          9.0080   -4.2100    0.0270 O.2     1  UNL1       -0.4540
     13  O          8.7870   -3.7300   -2.1050 O.2     1  UNL1       -0.4540
     14  C          9.0170   -4.8320   -1.2320 C.3     1  UNL1        0.4680
@<TRIPOS>BOND
     1    13    11    1
     2    13    14    1
     3     9    11    2
     4     9     7    1
     5    11    10    1
     6    14    12    1
     7     7     6    2
     8    10    12    1
     9    10     8    2
    10     3     2    1
    11     6     8    1
    12     6     5    1
    13     5     1    1
    14     2     1    1
    15     2     4    2
