MODEL 1
REMARK VINA RESULT:      -7.4      0.000      0.000
REMARK SMILES CC(=O)CCc1ccc2c(c1)OCO2
REMARK SMILES IDX 4 1 2 2 1 3 3 4 5 5 6 6 7 7 11 8 8 9 10 10 9 11 12 12 14 13
REMARK SMILES IDX 13 14
REMARK H PARENT
REMARK Flexibility Score: inf
ROOT
ATOM      1  C   UNL     1       5.689   1.781   1.415  1.00  0.00     0.080 C 
ENDROOT
BRANCH   1   2
ATOM      2  C   UNL     1       5.175   0.569   2.085  1.00  0.00     0.130 C 
ATOM      3  C   UNL     1       6.057  -0.606   2.226  1.00  0.00     0.087 C 
ATOM      4  O   UNL     1       4.044   0.565   2.504  1.00  0.00    -0.300 OA
ENDBRANCH   1   2
BRANCH   1   5
ATOM      5  C   UNL     1       5.501   1.700  -0.085  1.00  0.00     0.043 C 
BRANCH   5   6
ATOM      6  C   UNL     1       6.609   0.967  -0.704  1.00  0.00    -0.044 A 
ATOM      7  C   UNL     1       7.907   1.414  -0.561  1.00  0.00     0.008 A 
ATOM      8  C   UNL     1       6.403  -0.183  -1.446  1.00  0.00     0.054 A 
ATOM      9  C   UNL     1       8.987   0.748  -1.134  1.00  0.00     0.051 A 
ATOM     10  C   UNL     1       7.464  -0.871  -2.030  1.00  0.00     0.166 A 
ATOM     11  C   UNL     1       8.750  -0.399  -1.868  1.00  0.00     0.165 A 
ATOM     12  O   UNL     1       7.562  -2.024  -2.809  1.00  0.00    -0.454 OA
ATOM     13  O   UNL     1       9.604  -1.259  -2.543  1.00  0.00    -0.454 OA
ATOM     14  C   UNL     1       8.845  -2.138  -3.368  1.00  0.00     0.468 C 
ENDBRANCH   5   6
ENDBRANCH   1   5
TORSDOF 3
ENDMDL
MODEL 2
REMARK VINA RESULT:      -7.3      1.942      2.395
REMARK SMILES CC(=O)CCc1ccc2c(c1)OCO2
REMARK SMILES IDX 4 1 2 2 1 3 3 4 5 5 6 6 7 7 11 8 8 9 10 10 9 11 12 12 14 13
REMARK SMILES IDX 13 14
REMARK H PARENT
REMARK Flexibility Score: inf
ROOT
ATOM      1  C   UNL     1       5.672   1.108  -0.276  1.00  0.00     0.080 C 
ENDROOT
BRANCH   1   2
ATOM      2  C   UNL     1       5.169   1.159   1.112  1.00  0.00     0.130 C 
ATOM      3  C   UNL     1       5.378  -0.005   1.997  1.00  0.00     0.087 C 
ATOM      4  O   UNL     1       4.598   2.150   1.494  1.00  0.00    -0.300 OA
ENDBRANCH   1   2
BRANCH   1   5
ATOM      5  C   UNL     1       7.185   1.037  -0.309  1.00  0.00     0.043 C 
BRANCH   5   6
ATOM      6  C   UNL     1       7.627  -0.252  -0.850  1.00  0.00    -0.044 A 
ATOM      7  C   UNL     1       7.725  -0.438  -2.213  1.00  0.00     0.008 A 
ATOM      8  C   UNL     1       7.958  -1.316  -0.030  1.00  0.00     0.054 A 
ATOM      9  C   UNL     1       8.141  -1.646  -2.767  1.00  0.00     0.051 A 
ATOM     10  C   UNL     1       8.377  -2.536  -0.555  1.00  0.00     0.166 A 
ATOM     11  C   UNL     1       8.465  -2.691  -1.923  1.00  0.00     0.165 A 
ATOM     12  O   UNL     1       8.766  -3.752   0.006  1.00  0.00    -0.454 OA
ATOM     13  O   UNL     1       8.900  -3.984  -2.174  1.00  0.00    -0.454 OA
ATOM     14  C   UNL     1       8.836  -4.753  -0.977  1.00  0.00     0.468 C 
ENDBRANCH   5   6
ENDBRANCH   1   5
TORSDOF 3
ENDMDL
MODEL 3
REMARK VINA RESULT:      -7.2      2.132      2.680
REMARK SMILES CC(=O)CCc1ccc2c(c1)OCO2
REMARK SMILES IDX 4 1 2 2 1 3 3 4 5 5 6 6 7 7 11 8 8 9 10 10 9 11 12 12 14 13
REMARK SMILES IDX 13 14
REMARK H PARENT
REMARK Flexibility Score: inf
ROOT
ATOM      1  C   UNL     1       5.396  -0.073   1.778  1.00  0.00     0.080 C 
ENDROOT
BRANCH   1   2
ATOM      2  C   UNL     1       4.649   1.186   1.583  1.00  0.00     0.130 C 
ATOM      3  C   UNL     1       5.073   2.118   0.518  1.00  0.00     0.087 C 
ATOM      4  O   UNL     1       3.707   1.427   2.297  1.00  0.00    -0.300 OA
ENDBRANCH   1   2
BRANCH   1   5
ATOM      5  C   UNL     1       6.876   0.121   1.520  1.00  0.00     0.043 C 
BRANCH   5   6
ATOM      6  C   UNL     1       7.358  -0.847   0.531  1.00  0.00    -0.044 A 
ATOM      7  C   UNL     1       7.238  -0.584  -0.818  1.00  0.00     0.008 A 
ATOM      8  C   UNL     1       7.942  -2.045   0.903  1.00  0.00     0.054 A 
ATOM      9  C   UNL     1       7.682  -1.478  -1.789  1.00  0.00     0.051 A 
ATOM     10  C   UNL     1       8.396  -2.959  -0.045  1.00  0.00     0.166 A 
ATOM     11  C   UNL     1       8.261  -2.666  -1.386  1.00  0.00     0.165 A 
ATOM     12  O   UNL     1       9.008  -4.210   0.027  1.00  0.00    -0.454 OA
ATOM     13  O   UNL     1       8.787  -3.730  -2.105  1.00  0.00    -0.454 OA
ATOM     14  C   UNL     1       9.017  -4.832  -1.232  1.00  0.00     0.468 C 
ENDBRANCH   5   6
ENDBRANCH   1   5
TORSDOF 3
ENDMDL
MODEL 4
REMARK VINA RESULT:      -7.1      1.214      1.376
REMARK SMILES CC(=O)CCc1ccc2c(c1)OCO2
REMARK SMILES IDX 4 1 2 2 1 3 3 4 5 5 6 6 7 7 11 8 8 9 10 10 9 11 12 12 14 13
REMARK SMILES IDX 13 14
REMARK H PARENT
REMARK Flexibility Score: inf
ROOT
ATOM      1  C   UNL     1       6.251   1.255   0.985  1.00  0.00     0.080 C 
ENDROOT
BRANCH   1   2
ATOM      2  C   UNL     1       5.571   0.408   1.985  1.00  0.00     0.130 C 
ATOM      3  C   UNL     1       6.267  -0.783   2.512  1.00  0.00     0.087 C 
ATOM      4  O   UNL     1       4.461   0.706   2.351  1.00  0.00    -0.300 OA
ENDBRANCH   1   2
BRANCH   1   5
ATOM      5  C   UNL     1       5.752   0.959  -0.415  1.00  0.00     0.043 C 
BRANCH   5   6
ATOM      6  C   UNL     1       6.708   0.111  -1.133  1.00  0.00    -0.044 A 
ATOM      7  C   UNL     1       7.369   0.593  -2.245  1.00  0.00     0.008 A 
ATOM      8  C   UNL     1       6.982  -1.185  -0.734  1.00  0.00     0.054 A 
ATOM      9  C   UNL     1       8.283  -0.180  -2.955  1.00  0.00     0.051 A 
ATOM     10  C   UNL     1       7.891  -1.982  -1.424  1.00  0.00     0.166 A 
ATOM     11  C   UNL     1       8.535  -1.471  -2.532  1.00  0.00     0.165 A 
ATOM     12  O   UNL     1       8.357  -3.286  -1.263  1.00  0.00    -0.454 OA
ATOM     13  O   UNL     1       9.375  -2.459  -3.025  1.00  0.00    -0.454 OA
ATOM     14  C   UNL     1       9.074  -3.702  -2.397  1.00  0.00     0.468 C 
ENDBRANCH   5   6
ENDBRANCH   1   5
TORSDOF 3
ENDMDL
MODEL 5
REMARK VINA RESULT:      -7.1      1.993      2.607
REMARK SMILES CC(=O)CCc1ccc2c(c1)OCO2
REMARK SMILES IDX 4 1 2 2 1 3 3 4 5 5 6 6 7 7 11 8 8 9 10 10 9 11 12 12 14 13
REMARK SMILES IDX 13 14
REMARK H PARENT
REMARK Flexibility Score: inf
ROOT
ATOM      1  C   UNL     1       6.662   0.440   1.104  1.00  0.00     0.080 C 
ENDROOT
BRANCH   1   2
ATOM      2  C   UNL     1       5.347   1.031   1.422  1.00  0.00     0.130 C 
ATOM      3  C   UNL     1       4.842   2.150   0.600  1.00  0.00     0.087 C 
ATOM      4  O   UNL     1       4.711   0.589   2.347  1.00  0.00    -0.300 OA
ENDBRANCH   1   2
BRANCH   1   5
ATOM      5  C   UNL     1       7.005   0.620  -0.360  1.00  0.00     0.043 C 
BRANCH   5   6
ATOM      6  C   UNL     1       7.574  -0.614  -0.911  1.00  0.00    -0.044 A 
ATOM      7  C   UNL     1       7.849  -0.713  -2.259  1.00  0.00     0.008 A 
ATOM      8  C   UNL     1       7.851  -1.712  -0.115  1.00  0.00     0.054 A 
ATOM      9  C   UNL     1       8.388  -1.867  -2.822  1.00  0.00     0.051 A 
ATOM     10  C   UNL     1       8.391  -2.879  -0.650  1.00  0.00     0.166 A 
ATOM     11  C   UNL     1       8.655  -2.946  -2.002  1.00  0.00     0.165 A 
ATOM     12  O   UNL     1       8.765  -4.110  -0.112  1.00  0.00    -0.454 OA
ATOM     13  O   UNL     1       9.181  -4.203  -2.267  1.00  0.00    -0.454 OA
ATOM     14  C   UNL     1       9.005  -5.046  -1.132  1.00  0.00     0.468 C 
ENDBRANCH   5   6
ENDBRANCH   1   5
TORSDOF 3
ENDMDL
