@<TRIPOS>MOLECULE
/home/cewinharhar/GITHUB/reincatalyze/data/processed/docking_pred/2023-May-31-1603_sub9_nm5_bs15_s42_ex16_mel10_mts1000_k50_ec05_g099_lra3e-4_lrc9e-3/f74925e0f2dbd9eb14447f51d5c862455f02ecd6_ligand_9.pdbqt
 14 15 0 0 0
SMALL
GASTEIGER

@<TRIPOS>ATOM
      1  C          5.6720    1.1080   -0.2760 C.3     1  UNL1        0.0800
      2  C          5.1690    1.1590    1.1120 C.2     1  UNL1        0.1300
      3  C          5.3780   -0.0050    1.9970 C.3     1  UNL1        0.0870
      4  O          4.5980    2.1500    1.4940 O.2     1  UNL1       -0.3000
      5  C          7.1850    1.0370   -0.3090 C.3     1  UNL1        0.0430
      6  C          7.6270   -0.2520   -0.8500 C.2     1  UNL1       -0.0440
      7  C          7.7250   -0.4380   -2.2130 C.2     1  UNL1        0.0080
      8  C          7.9580   -1.3160   -0.0300 C.2     1  UNL1        0.0540
      9  C          8.1410   -1.6460   -2.7670 C.2     1  UNL1        0.0510
     10  C          8.3770   -2.5360   -0.5550 C.2     1  UNL1        0.1660
     11  C          8.4650   -2.6910   -1.9230 C.2     1  UNL1        0.1650
     12  O          8.7660   -3.7520    0.0060 O.2     1  UNL1       -0.4540
     13  O          8.9000   -3.9840   -2.1740 O.2     1  UNL1       -0.4540
     14  C          8.8360   -4.7530   -0.9770 C.3     1  UNL1        0.4680
@<TRIPOS>BOND
     1     9     7    1
     2     9    11    2
     3     7     6    2
     4    13    11    1
     5    13    14    1
     6    11    10    1
     7    14    12    1
     8     6     5    1
     9     6     8    1
    10    10     8    2
    11    10    12    1
    12     5     1    1
    13     1     2    1
    14     2     4    2
    15     2     3    1
