@<TRIPOS>MOLECULE
/home/cewinharhar/GITHUB/reincatalyze/data/processed/docking_pred/2023-May-31-1603_sub9_nm5_bs15_s42_ex16_mel10_mts1000_k50_ec05_g099_lra3e-4_lrc9e-3/f74925e0f2dbd9eb14447f51d5c862455f02ecd6_ligand_9.pdbqt
 14 15 0 0 0
SMALL
GASTEIGER

@<TRIPOS>ATOM
      1  C          6.6620    0.4400    1.1040 C.3     1  UNL1        0.0800
      2  C          5.3470    1.0310    1.4220 C.2     1  UNL1        0.1300
      3  C          4.8420    2.1500    0.6000 C.3     1  UNL1        0.0870
      4  O          4.7110    0.5890    2.3470 O.2     1  UNL1       -0.3000
      5  C          7.0050    0.6200   -0.3600 C.3     1  UNL1        0.0430
      6  C          7.5740   -0.6140   -0.9110 C.2     1  UNL1       -0.0440
      7  C          7.8490   -0.7130   -2.2590 C.2     1  UNL1        0.0080
      8  C          7.8510   -1.7120   -0.1150 C.2     1  UNL1        0.0540
      9  C          8.3880   -1.8670   -2.8220 C.2     1  UNL1        0.0510
     10  C          8.3910   -2.8790   -0.6500 C.2     1  UNL1        0.1660
     11  C          8.6550   -2.9460   -2.0020 C.2     1  UNL1        0.1650
     12  O          8.7650   -4.1100   -0.1120 O.2     1  UNL1       -0.4540
     13  O          9.1810   -4.2030   -2.2670 O.2     1  UNL1       -0.4540
     14  C          9.0050   -5.0460   -1.1320 C.3     1  UNL1        0.4680
@<TRIPOS>BOND
     1     9     7    1
     2     9    11    2
     3    13    11    1
     4    13    14    1
     5     7     6    2
     6    11    10    1
     7    14    12    1
     8     6     5    1
     9     6     8    1
    10    10     8    2
    11    10    12    1
    12     5     1    1
    13     3     2    1
    14     1     2    1
    15     2     4    2
