@<TRIPOS>MOLECULE
/home/cewinharhar/GITHUB/reincatalyze/data/processed/docking_pred/2023-May-31-1603_sub9_nm5_bs15_s42_ex16_mel10_mts1000_k50_ec05_g099_lra3e-4_lrc9e-3/f9550a52c30547fdb3e6e224a3b8a38c5560e948_ligand_9.pdbqt
 14 15 0 0 0
SMALL
GASTEIGER

@<TRIPOS>ATOM
      1  C          6.2920    1.2540    0.9900 C.3     1  UNL1        0.0800
      2  C          5.6010    0.4100    1.9850 C.2     1  UNL1        0.1300
      3  C          6.2970   -0.7690    2.5390 C.3     1  UNL1        0.0870
      4  O          4.4810    0.7010    2.3260 O.2     1  UNL1       -0.3000
      5  C          5.7840    0.9790   -0.4100 C.3     1  UNL1        0.0430
      6  C          6.7210    0.1170   -1.1370 C.2     1  UNL1       -0.0440
      7  C          7.3560    0.5790   -2.2710 C.2     1  UNL1        0.0080
      8  C          7.0020   -1.1730   -0.7230 C.2     1  UNL1        0.0540
      9  C          8.2520   -0.2080   -2.9900 C.2     1  UNL1        0.0510
     10  C          7.8930   -1.9840   -1.4210 C.2     1  UNL1        0.1660
     11  C          8.5120   -1.4920   -2.5520 C.2     1  UNL1        0.1650
     12  O          8.3600   -3.2860   -1.2490 O.2     1  UNL1       -0.4540
     13  O          9.3380   -2.4910   -3.0490 O.2     1  UNL1       -0.4540
     14  C          9.0490   -3.7220   -2.3930 C.3     1  UNL1        0.4680
@<TRIPOS>BOND
     1    13    11    1
     2    13    14    1
     3     9    11    2
     4     9     7    1
     5    11    10    1
     6    14    12    1
     7     7     6    2
     8    10    12    1
     9    10     8    2
    10     6     8    1
    11     6     5    1
    12     5     1    1
    13     1     2    1
    14     2     4    2
    15     2     3    1
