@<TRIPOS>MOLECULE
/home/cewinharhar/GITHUB/reincatalyze/data/processed/docking_pred/2023-May-31-1603_sub9_nm5_bs15_s42_ex16_mel10_mts1000_k50_ec05_g099_lra3e-4_lrc9e-3/f9550a52c30547fdb3e6e224a3b8a38c5560e948_ligand_9.pdbqt
 14 15 0 0 0
SMALL
GASTEIGER

@<TRIPOS>ATOM
      1  C          6.4600    0.2300    1.2510 C.3     1  UNL1        0.0800
      2  C          5.2280    1.0190    1.4520 C.2     1  UNL1        0.1300
      3  C          4.9370    2.1450    0.5430 C.3     1  UNL1        0.0870
      4  O          4.4840    0.7270    2.3550 O.2     1  UNL1       -0.3000
      5  C          7.0960    0.5370   -0.0890 C.3     1  UNL1        0.0430
      6  C          7.6240   -0.6850   -0.7020 C.2     1  UNL1       -0.0440
      7  C          7.7810   -0.7670   -2.0700 C.2     1  UNL1        0.0080
      8  C          7.9790   -1.7890    0.0540 C.2     1  UNL1        0.0540
      9  C          8.2780   -1.9100   -2.6900 C.2     1  UNL1        0.0510
     10  C          8.4790   -2.9460   -0.5380 C.2     1  UNL1        0.1660
     11  C          8.6240   -2.9960   -1.9090 C.2     1  UNL1        0.1650
     12  O          8.9080   -4.1790   -0.0490 O.2     1  UNL1       -0.4540
     13  O          9.1340   -4.2450   -2.2330 O.2     1  UNL1       -0.4540
     14  C          9.0650   -5.1020   -1.0970 C.3     1  UNL1        0.4680
@<TRIPOS>BOND
     1     9     7    1
     2     9    11    2
     3    13    11    1
     4    13    14    1
     5     7     6    2
     6    11    10    1
     7    14    12    1
     8     6     5    1
     9     6     8    1
    10    10    12    1
    11    10     8    2
    12     5     1    1
    13     3     2    1
    14     1     2    1
    15     2     4    2
