MODEL 1
REMARK VINA RESULT:      -7.5      0.000      0.000
REMARK SMILES CC(=O)CCc1ccc2c(c1)OCO2
REMARK SMILES IDX 4 1 2 2 1 3 3 4 5 5 6 6 7 7 11 8 8 9 10 10 9 11 12 12 14 13
REMARK SMILES IDX 13 14
REMARK H PARENT
REMARK Flexibility Score: inf
ROOT
ATOM      1  C   UNL     1       5.633   1.823   1.344  1.00  0.00     0.080 C 
ENDROOT
BRANCH   1   2
ATOM      2  C   UNL     1       5.135   0.633   2.063  1.00  0.00     0.130 C 
ATOM      3  C   UNL     1       6.035  -0.522   2.254  1.00  0.00     0.087 C 
ATOM      4  O   UNL     1       4.003   0.629   2.479  1.00  0.00    -0.300 OA
ENDBRANCH   1   2
BRANCH   1   5
ATOM      5  C   UNL     1       5.448   1.678  -0.152  1.00  0.00     0.043 C 
BRANCH   5   6
ATOM      6  C   UNL     1       6.577   0.952  -0.742  1.00  0.00    -0.044 A 
ATOM      7  C   UNL     1       7.865   1.420  -0.584  1.00  0.00     0.008 A 
ATOM      8  C   UNL     1       6.399  -0.210  -1.472  1.00  0.00     0.054 A 
ATOM      9  C   UNL     1       8.964   0.761  -1.129  1.00  0.00     0.051 A 
ATOM     10  C   UNL     1       7.479  -0.891  -2.029  1.00  0.00     0.166 A 
ATOM     11  C   UNL     1       8.755  -0.398  -1.852  1.00  0.00     0.165 A 
ATOM     12  O   UNL     1       7.606  -2.053  -2.790  1.00  0.00    -0.454 OA
ATOM     13  O   UNL     1       9.632  -1.255  -2.501  1.00  0.00    -0.454 OA
ATOM     14  C   UNL     1       8.900  -2.156  -3.327  1.00  0.00     0.468 C 
ENDBRANCH   5   6
ENDBRANCH   1   5
TORSDOF 3
ENDMDL
MODEL 2
REMARK VINA RESULT:      -7.3      1.936      2.358
REMARK SMILES CC(=O)CCc1ccc2c(c1)OCO2
REMARK SMILES IDX 4 1 2 2 1 3 3 4 5 5 6 6 7 7 11 8 8 9 10 10 9 11 12 12 14 13
REMARK SMILES IDX 13 14
REMARK H PARENT
REMARK Flexibility Score: inf
ROOT
ATOM      1  C   UNL     1       5.673   1.236  -0.233  1.00  0.00     0.080 C 
ENDROOT
BRANCH   1   2
ATOM      2  C   UNL     1       5.046   1.231   1.104  1.00  0.00     0.130 C 
ATOM      3  C   UNL     1       5.308   0.102   2.019  1.00  0.00     0.087 C 
ATOM      4  O   UNL     1       4.331   2.149   1.421  1.00  0.00    -0.300 OA
ENDBRANCH   1   2
BRANCH   1   5
ATOM      5  C   UNL     1       7.177   1.080  -0.134  1.00  0.00     0.043 C 
BRANCH   5   6
ATOM      6  C   UNL     1       7.600  -0.202  -0.705  1.00  0.00    -0.044 A 
ATOM      7  C   UNL     1       7.642  -0.375  -2.073  1.00  0.00     0.008 A 
ATOM      8  C   UNL     1       7.968  -1.272   0.091  1.00  0.00     0.054 A 
ATOM      9  C   UNL     1       8.037  -1.577  -2.655  1.00  0.00     0.051 A 
ATOM     10  C   UNL     1       8.368  -2.486  -0.462  1.00  0.00     0.166 A 
ATOM     11  C   UNL     1       8.399  -2.628  -1.834  1.00  0.00     0.165 A 
ATOM     12  O   UNL     1       8.784  -3.706   0.071  1.00  0.00    -0.454 OA
ATOM     13  O   UNL     1       8.828  -3.917  -2.115  1.00  0.00    -0.454 OA
ATOM     14  C   UNL     1       8.815  -4.698  -0.923  1.00  0.00     0.468 C 
ENDBRANCH   5   6
ENDBRANCH   1   5
TORSDOF 3
ENDMDL
MODEL 3
REMARK VINA RESULT:      -7.2      2.067      2.638
REMARK SMILES CC(=O)CCc1ccc2c(c1)OCO2
REMARK SMILES IDX 4 1 2 2 1 3 3 4 5 5 6 6 7 7 11 8 8 9 10 10 9 11 12 12 14 13
REMARK SMILES IDX 13 14
REMARK H PARENT
REMARK Flexibility Score: inf
ROOT
ATOM      1  C   UNL     1       5.320  -0.092   1.901  1.00  0.00     0.080 C 
ENDROOT
BRANCH   1   2
ATOM      2  C   UNL     1       4.543   1.141   1.665  1.00  0.00     0.130 C 
ATOM      3  C   UNL     1       4.989   2.086   0.622  1.00  0.00     0.087 C 
ATOM      4  O   UNL     1       3.559   1.352   2.331  1.00  0.00    -0.300 OA
ENDBRANCH   1   2
BRANCH   1   5
ATOM      5  C   UNL     1       6.794   0.128   1.631  1.00  0.00     0.043 C 
BRANCH   5   6
ATOM      6  C   UNL     1       7.279  -0.815   0.619  1.00  0.00    -0.044 A 
ATOM      7  C   UNL     1       7.175  -0.511  -0.723  1.00  0.00     0.008 A 
ATOM      8  C   UNL     1       7.851  -2.028   0.962  1.00  0.00     0.054 A 
ATOM      9  C   UNL     1       7.623  -1.379  -1.715  1.00  0.00     0.051 A 
ATOM     10  C   UNL     1       8.307  -2.916  -0.009  1.00  0.00     0.166 A 
ATOM     11  C   UNL     1       8.189  -2.583  -1.342  1.00  0.00     0.165 A 
ATOM     12  O   UNL     1       8.910  -4.173   0.032  1.00  0.00    -0.454 OA
ATOM     13  O   UNL     1       8.714  -3.629  -2.087  1.00  0.00    -0.454 OA
ATOM     14  C   UNL     1       8.927  -4.758  -1.244  1.00  0.00     0.468 C 
ENDBRANCH   5   6
ENDBRANCH   1   5
TORSDOF 3
ENDMDL
MODEL 4
REMARK VINA RESULT:      -7.1      1.221      1.387
REMARK SMILES CC(=O)CCc1ccc2c(c1)OCO2
REMARK SMILES IDX 4 1 2 2 1 3 3 4 5 5 6 6 7 7 11 8 8 9 10 10 9 11 12 12 14 13
REMARK SMILES IDX 13 14
REMARK H PARENT
REMARK Flexibility Score: inf
ROOT
ATOM      1  C   UNL     1       6.292   1.254   0.990  1.00  0.00     0.080 C 
ENDROOT
BRANCH   1   2
ATOM      2  C   UNL     1       5.601   0.410   1.985  1.00  0.00     0.130 C 
ATOM      3  C   UNL     1       6.297  -0.769   2.539  1.00  0.00     0.087 C 
ATOM      4  O   UNL     1       4.481   0.701   2.326  1.00  0.00    -0.300 OA
ENDBRANCH   1   2
BRANCH   1   5
ATOM      5  C   UNL     1       5.784   0.979  -0.410  1.00  0.00     0.043 C 
BRANCH   5   6
ATOM      6  C   UNL     1       6.721   0.117  -1.137  1.00  0.00    -0.044 A 
ATOM      7  C   UNL     1       7.356   0.579  -2.271  1.00  0.00     0.008 A 
ATOM      8  C   UNL     1       7.002  -1.173  -0.723  1.00  0.00     0.054 A 
ATOM      9  C   UNL     1       8.252  -0.208  -2.990  1.00  0.00     0.051 A 
ATOM     10  C   UNL     1       7.893  -1.984  -1.421  1.00  0.00     0.166 A 
ATOM     11  C   UNL     1       8.512  -1.492  -2.552  1.00  0.00     0.165 A 
ATOM     12  O   UNL     1       8.360  -3.286  -1.249  1.00  0.00    -0.454 OA
ATOM     13  O   UNL     1       9.338  -2.491  -3.049  1.00  0.00    -0.454 OA
ATOM     14  C   UNL     1       9.049  -3.722  -2.393  1.00  0.00     0.468 C 
ENDBRANCH   5   6
ENDBRANCH   1   5
TORSDOF 3
ENDMDL
MODEL 5
REMARK VINA RESULT:      -7.0      2.029      2.650
REMARK SMILES CC(=O)CCc1ccc2c(c1)OCO2
REMARK SMILES IDX 4 1 2 2 1 3 3 4 5 5 6 6 7 7 11 8 8 9 10 10 9 11 12 12 14 13
REMARK SMILES IDX 13 14
REMARK H PARENT
REMARK Flexibility Score: inf
ROOT
ATOM      1  C   UNL     1       6.460   0.230   1.251  1.00  0.00     0.080 C 
ENDROOT
BRANCH   1   2
ATOM      2  C   UNL     1       5.228   1.019   1.452  1.00  0.00     0.130 C 
ATOM      3  C   UNL     1       4.937   2.145   0.543  1.00  0.00     0.087 C 
ATOM      4  O   UNL     1       4.484   0.727   2.355  1.00  0.00    -0.300 OA
ENDBRANCH   1   2
BRANCH   1   5
ATOM      5  C   UNL     1       7.096   0.537  -0.089  1.00  0.00     0.043 C 
BRANCH   5   6
ATOM      6  C   UNL     1       7.624  -0.685  -0.702  1.00  0.00    -0.044 A 
ATOM      7  C   UNL     1       7.781  -0.767  -2.070  1.00  0.00     0.008 A 
ATOM      8  C   UNL     1       7.979  -1.789   0.054  1.00  0.00     0.054 A 
ATOM      9  C   UNL     1       8.278  -1.910  -2.690  1.00  0.00     0.051 A 
ATOM     10  C   UNL     1       8.479  -2.946  -0.538  1.00  0.00     0.166 A 
ATOM     11  C   UNL     1       8.624  -2.996  -1.909  1.00  0.00     0.165 A 
ATOM     12  O   UNL     1       8.908  -4.179  -0.049  1.00  0.00    -0.454 OA
ATOM     13  O   UNL     1       9.134  -4.245  -2.233  1.00  0.00    -0.454 OA
ATOM     14  C   UNL     1       9.065  -5.102  -1.097  1.00  0.00     0.468 C 
ENDBRANCH   5   6
ENDBRANCH   1   5
TORSDOF 3
ENDMDL
