@<TRIPOS>MOLECULE
/home/cewinharhar/GITHUB/reincatalyze/data/processed/docking_pred/2023-May-31-1603_sub9_nm5_bs15_s42_ex16_mel10_mts1000_k50_ec05_g099_lra3e-4_lrc9e-3/f9550a52c30547fdb3e6e224a3b8a38c5560e948_ligand_9.pdbqt
 14 15 0 0 0
SMALL
GASTEIGER

@<TRIPOS>ATOM
      1  C          5.3200   -0.0920    1.9010 C.3     1  UNL1        0.0800
      2  C          4.5430    1.1410    1.6650 C.2     1  UNL1        0.1300
      3  C          4.9890    2.0860    0.6220 C.3     1  UNL1        0.0870
      4  O          3.5590    1.3520    2.3310 O.2     1  UNL1       -0.3000
      5  C          6.7940    0.1280    1.6310 C.3     1  UNL1        0.0430
      6  C          7.2790   -0.8150    0.6190 C.2     1  UNL1       -0.0440
      7  C          7.1750   -0.5110   -0.7230 C.2     1  UNL1        0.0080
      8  C          7.8510   -2.0280    0.9620 C.2     1  UNL1        0.0540
      9  C          7.6230   -1.3790   -1.7150 C.2     1  UNL1        0.0510
     10  C          8.3070   -2.9160   -0.0090 C.2     1  UNL1        0.1660
     11  C          8.1890   -2.5830   -1.3420 C.2     1  UNL1        0.1650
     12  O          8.9100   -4.1730    0.0320 O.2     1  UNL1       -0.4540
     13  O          8.7140   -3.6290   -2.0870 O.2     1  UNL1       -0.4540
     14  C          8.9270   -4.7580   -1.2440 C.3     1  UNL1        0.4680
@<TRIPOS>BOND
     1    13    11    1
     2    13    14    1
     3     9    11    2
     4     9     7    1
     5    11    10    1
     6    14    12    1
     7     7     6    2
     8    10    12    1
     9    10     8    2
    10     6     8    1
    11     6     5    1
    12     3     2    1
    13     5     1    1
    14     2     1    1
    15     2     4    2
