@<TRIPOS>MOLECULE
/home/cewinharhar/GITHUB/reincatalyze/data/processed/docking_pred/2023-May-31-1603_sub9_nm5_bs15_s42_ex16_mel10_mts1000_k50_ec05_g099_lra3e-4_lrc9e-3/faf685cb0c2e1ff185f0c147bdf23d27aa2a460b_ligand_9.pdbqt
 14 15 0 0 0
SMALL
GASTEIGER

@<TRIPOS>ATOM
      1  C          5.6610    1.2700   -0.2690 C.3     1  UNL1        0.0800
      2  C          5.0050    1.2360    1.0530 C.2     1  UNL1        0.1300
      3  C          5.2700    0.1020    1.9610 C.3     1  UNL1        0.0870
      4  O          4.2640    2.1360    1.3650 O.2     1  UNL1       -0.3000
      5  C          7.1600    1.0960   -0.1420 C.3     1  UNL1        0.0430
      6  C          7.5790   -0.1910   -0.7030 C.2     1  UNL1       -0.0440
      7  C          7.5960   -0.3840   -2.0690 C.2     1  UNL1        0.0080
      8  C          7.9680   -1.2490    0.1000 C.2     1  UNL1        0.0540
      9  C          7.9860   -1.5910   -2.6420 C.2     1  UNL1        0.0510
     10  C          8.3630   -2.4690   -0.4440 C.2     1  UNL1        0.1660
     11  C          8.3690   -2.6290   -1.8140 C.2     1  UNL1        0.1650
     12  O          8.7950   -3.6790    0.0980 O.2     1  UNL1       -0.4540
     13  O          8.7980   -3.9200   -2.0860 O.2     1  UNL1       -0.4540
     14  C          8.8120   -4.6840   -0.8830 C.3     1  UNL1        0.4680
@<TRIPOS>BOND
     1     9     7    1
     2     9    11    2
     3    13    11    1
     4    13    14    1
     5     7     6    2
     6    11    10    1
     7    14    12    1
     8     6     5    1
     9     6     8    1
    10    10    12    1
    11    10     8    2
    12     1     5    1
    13     1     2    1
    14     2     4    2
    15     2     3    1
