@<TRIPOS>MOLECULE
/home/cewinharhar/GITHUB/reincatalyze/data/processed/docking_pred/2023-May-31-1603_sub9_nm5_bs15_s42_ex16_mel10_mts1000_k50_ec05_g099_lra3e-4_lrc9e-3/faf685cb0c2e1ff185f0c147bdf23d27aa2a460b_ligand_9.pdbqt
 14 15 0 0 0
SMALL
GASTEIGER

@<TRIPOS>ATOM
      1  C          6.2770    1.2270    0.9870 C.3     1  UNL1        0.0800
      2  C          5.5730    0.3870    1.9770 C.2     1  UNL1        0.1300
      3  C          6.2600   -0.7930    2.5390 C.3     1  UNL1        0.0870
      4  O          4.4510    0.6830    2.3070 O.2     1  UNL1       -0.3000
      5  C          5.7770    0.9550   -0.4170 C.3     1  UNL1        0.0430
      6  C          6.7180    0.0950   -1.1410 C.2     1  UNL1       -0.0440
      7  C          7.3570    0.5600   -2.2720 C.2     1  UNL1        0.0080
      8  C          6.9990   -1.1950   -0.7270 C.2     1  UNL1        0.0540
      9  C          8.2570   -0.2250   -2.9880 C.2     1  UNL1        0.0510
     10  C          7.8950   -2.0030   -1.4230 C.2     1  UNL1        0.1660
     11  C          8.5170   -1.5100   -2.5500 C.2     1  UNL1        0.1650
     12  O          8.3630   -3.3050   -1.2510 O.2     1  UNL1       -0.4540
     13  O          9.3470   -2.5060   -3.0450 O.2     1  UNL1       -0.4540
     14  C          9.0570   -3.7390   -2.3920 C.3     1  UNL1        0.4680
@<TRIPOS>BOND
     1    13    11    1
     2    13    14    1
     3     9    11    2
     4     9     7    1
     5    11    10    1
     6    14    12    1
     7     7     6    2
     8    10    12    1
     9    10     8    2
    10     6     8    1
    11     6     5    1
    12     5     1    1
    13     1     2    1
    14     2     4    2
    15     2     3    1
