MODEL 1
REMARK VINA RESULT:      -7.5      0.000      0.000
REMARK SMILES CC(=O)CCc1ccc2c(c1)OCO2
REMARK SMILES IDX 4 1 2 2 1 3 3 4 5 5 6 6 7 7 11 8 8 9 10 10 9 11 12 12 14 13
REMARK SMILES IDX 13 14
REMARK H PARENT
REMARK Flexibility Score: inf
ROOT
ATOM      1  C   UNL     1       5.607   1.851   1.317  1.00  0.00     0.080 C 
ENDROOT
BRANCH   1   2
ATOM      2  C   UNL     1       5.138   0.661   2.054  1.00  0.00     0.130 C 
ATOM      3  C   UNL     1       6.058  -0.478   2.245  1.00  0.00     0.087 C 
ATOM      4  O   UNL     1       4.011   0.643   2.485  1.00  0.00    -0.300 OA
ENDBRANCH   1   2
BRANCH   1   5
ATOM      5  C   UNL     1       5.423   1.680  -0.177  1.00  0.00     0.043 C 
BRANCH   5   6
ATOM      6  C   UNL     1       6.558   0.956  -0.756  1.00  0.00    -0.044 A 
ATOM      7  C   UNL     1       7.845   1.418  -0.574  1.00  0.00     0.008 A 
ATOM      8  C   UNL     1       6.389  -0.201  -1.496  1.00  0.00     0.054 A 
ATOM      9  C   UNL     1       8.950   0.761  -1.108  1.00  0.00     0.051 A 
ATOM     10  C   UNL     1       7.475  -0.881  -2.042  1.00  0.00     0.166 A 
ATOM     11  C   UNL     1       8.749  -0.393  -1.842  1.00  0.00     0.165 A 
ATOM     12  O   UNL     1       7.610  -2.037  -2.810  1.00  0.00    -0.454 OA
ATOM     13  O   UNL     1       9.634  -1.247  -2.484  1.00  0.00    -0.454 OA
ATOM     14  C   UNL     1       8.912  -2.140  -3.328  1.00  0.00     0.468 C 
ENDBRANCH   5   6
ENDBRANCH   1   5
TORSDOF 3
ENDMDL
MODEL 2
REMARK VINA RESULT:      -7.4      1.946      2.366
REMARK SMILES CC(=O)CCc1ccc2c(c1)OCO2
REMARK SMILES IDX 4 1 2 2 1 3 3 4 5 5 6 6 7 7 11 8 8 9 10 10 9 11 12 12 14 13
REMARK SMILES IDX 13 14
REMARK H PARENT
REMARK Flexibility Score: inf
ROOT
ATOM      1  C   UNL     1       5.673   1.236  -0.233  1.00  0.00     0.080 C 
ENDROOT
BRANCH   1   2
ATOM      2  C   UNL     1       5.046   1.231   1.104  1.00  0.00     0.130 C 
ATOM      3  C   UNL     1       5.308   0.102   2.019  1.00  0.00     0.087 C 
ATOM      4  O   UNL     1       4.331   2.149   1.421  1.00  0.00    -0.300 OA
ENDBRANCH   1   2
BRANCH   1   5
ATOM      5  C   UNL     1       7.177   1.080  -0.134  1.00  0.00     0.043 C 
BRANCH   5   6
ATOM      6  C   UNL     1       7.600  -0.202  -0.705  1.00  0.00    -0.044 A 
ATOM      7  C   UNL     1       7.642  -0.375  -2.073  1.00  0.00     0.008 A 
ATOM      8  C   UNL     1       7.968  -1.272   0.091  1.00  0.00     0.054 A 
ATOM      9  C   UNL     1       8.037  -1.577  -2.655  1.00  0.00     0.051 A 
ATOM     10  C   UNL     1       8.368  -2.486  -0.462  1.00  0.00     0.166 A 
ATOM     11  C   UNL     1       8.399  -2.628  -1.834  1.00  0.00     0.165 A 
ATOM     12  O   UNL     1       8.784  -3.706   0.071  1.00  0.00    -0.454 OA
ATOM     13  O   UNL     1       8.828  -3.917  -2.115  1.00  0.00    -0.454 OA
ATOM     14  C   UNL     1       8.815  -4.698  -0.923  1.00  0.00     0.468 C 
ENDBRANCH   5   6
ENDBRANCH   1   5
TORSDOF 3
ENDMDL
MODEL 3
REMARK VINA RESULT:      -7.2      2.139      2.656
REMARK SMILES CC(=O)CCc1ccc2c(c1)OCO2
REMARK SMILES IDX 4 1 2 2 1 3 3 4 5 5 6 6 7 7 11 8 8 9 10 10 9 11 12 12 14 13
REMARK SMILES IDX 13 14
REMARK H PARENT
REMARK Flexibility Score: inf
ROOT
ATOM      1  C   UNL     1       5.493  -0.008   1.769  1.00  0.00     0.080 C 
ENDROOT
BRANCH   1   2
ATOM      2  C   UNL     1       4.661   1.190   1.541  1.00  0.00     0.130 C 
ATOM      3  C   UNL     1       5.036   2.135   0.469  1.00  0.00     0.087 C 
ATOM      4  O   UNL     1       3.692   1.374   2.235  1.00  0.00    -0.300 OA
ENDBRANCH   1   2
BRANCH   1   5
ATOM      5  C   UNL     1       6.936   0.245   1.386  1.00  0.00     0.043 C 
BRANCH   5   6
ATOM      6  C   UNL     1       7.401  -0.767   0.433  1.00  0.00    -0.044 A 
ATOM      7  C   UNL     1       7.296  -0.546  -0.925  1.00  0.00     0.008 A 
ATOM      8  C   UNL     1       7.955  -1.965   0.849  1.00  0.00     0.054 A 
ATOM      9  C   UNL     1       7.725  -1.481  -1.862  1.00  0.00     0.051 A 
ATOM     10  C   UNL     1       8.393  -2.920  -0.066  1.00  0.00     0.166 A 
ATOM     11  C   UNL     1       8.273  -2.669  -1.417  1.00  0.00     0.165 A 
ATOM     12  O   UNL     1       8.975  -4.182   0.052  1.00  0.00    -0.454 OA
ATOM     13  O   UNL     1       8.778  -3.768  -2.097  1.00  0.00    -0.454 OA
ATOM     14  C   UNL     1       8.976  -4.846  -1.186  1.00  0.00     0.468 C 
ENDBRANCH   5   6
ENDBRANCH   1   5
TORSDOF 3
ENDMDL
MODEL 4
REMARK VINA RESULT:      -6.9      1.921      2.558
REMARK SMILES CC(=O)CCc1ccc2c(c1)OCO2
REMARK SMILES IDX 4 1 2 2 1 3 3 4 5 5 6 6 7 7 11 8 8 9 10 10 9 11 12 12 14 13
REMARK SMILES IDX 13 14
REMARK H PARENT
REMARK Flexibility Score: inf
ROOT
ATOM      1  C   UNL     1       6.742   0.867   0.706  1.00  0.00     0.080 C 
ENDROOT
BRANCH   1   2
ATOM      2  C   UNL     1       5.454   1.107   1.386  1.00  0.00     0.130 C 
ATOM      3  C   UNL     1       4.547   2.150   0.865  1.00  0.00     0.087 C 
ATOM      4  O   UNL     1       5.168   0.446   2.353  1.00  0.00    -0.300 OA
ENDBRANCH   1   2
BRANCH   1   5
ATOM      5  C   UNL     1       6.544   0.621  -0.776  1.00  0.00     0.043 C 
BRANCH   5   6
ATOM      6  C   UNL     1       7.248  -0.594  -1.195  1.00  0.00    -0.044 A 
ATOM      7  C   UNL     1       7.636  -0.756  -2.509  1.00  0.00     0.008 A 
ATOM      8  C   UNL     1       7.546  -1.611  -0.305  1.00  0.00     0.054 A 
ATOM      9  C   UNL     1       8.306  -1.895  -2.947  1.00  0.00     0.051 A 
ATOM     10  C   UNL     1       8.215  -2.762  -0.715  1.00  0.00     0.166 A 
ATOM     11  C   UNL     1       8.590  -2.894  -2.036  1.00  0.00     0.165 A 
ATOM     12  O   UNL     1       8.640  -3.921  -0.066  1.00  0.00    -0.454 OA
ATOM     13  O   UNL     1       9.231  -4.117  -2.173  1.00  0.00    -0.454 OA
ATOM     14  C   UNL     1       9.032  -4.897  -0.997  1.00  0.00     0.468 C 
ENDBRANCH   5   6
ENDBRANCH   1   5
TORSDOF 3
ENDMDL
MODEL 5
REMARK VINA RESULT:      -6.9      1.204      5.198
REMARK SMILES CC(=O)CCc1ccc2c(c1)OCO2
REMARK SMILES IDX 4 1 2 2 1 3 3 4 5 5 6 6 7 7 11 8 8 9 10 10 9 11 12 12 14 13
REMARK SMILES IDX 13 14
REMARK H PARENT
REMARK Flexibility Score: inf
ROOT
ATOM      1  C   UNL     1       8.329   0.202  -2.556  1.00  0.00     0.080 C 
ENDROOT
BRANCH   1   2
ATOM      2  C   UNL     1       8.024  -1.236  -2.702  1.00  0.00     0.130 C 
ATOM      3  C   UNL     1       9.129  -2.188  -2.927  1.00  0.00     0.087 C 
ATOM      4  O   UNL     1       6.876  -1.602  -2.635  1.00  0.00    -0.300 OA
ENDBRANCH   1   2
BRANCH   1   5
ATOM      5  C   UNL     1       8.869   0.510  -1.175  1.00  0.00     0.043 C 
BRANCH   5   6
ATOM      6  C   UNL     1       7.798   0.444  -0.176  1.00  0.00    -0.044 A 
ATOM      7  C   UNL     1       7.793  -0.555   0.774  1.00  0.00     0.008 A 
ATOM      8  C   UNL     1       6.766   1.366  -0.148  1.00  0.00     0.054 A 
ATOM      9  C   UNL     1       6.794  -0.653   1.739  1.00  0.00     0.051 A 
ATOM     10  C   UNL     1       5.753   1.293   0.805  1.00  0.00     0.166 A 
ATOM     11  C   UNL     1       5.776   0.282   1.743  1.00  0.00     0.165 A 
ATOM     12  O   UNL     1       4.618   2.056   1.075  1.00  0.00    -0.454 OA
ATOM     13  O   UNL     1       4.667   0.439   2.561  1.00  0.00    -0.454 OA
ATOM     14  C   UNL     1       3.779   1.395   1.987  1.00  0.00     0.468 C 
ENDBRANCH   5   6
ENDBRANCH   1   5
TORSDOF 3
ENDMDL
