@<TRIPOS>MOLECULE
/home/cewinharhar/GITHUB/reincatalyze/data/processed/docking_pred/2023-May-31-1603_sub9_nm5_bs15_s42_ex16_mel10_mts1000_k50_ec05_g099_lra3e-4_lrc9e-3/fbb46063794dc265e75c2cefc4e8ae8bb502d9b1_ligand_9.pdbqt
 14 15 0 0 0
SMALL
GASTEIGER

@<TRIPOS>ATOM
      1  C          6.7420    0.8670    0.7060 C.3     1  UNL1        0.0800
      2  C          5.4540    1.1070    1.3860 C.2     1  UNL1        0.1300
      3  C          4.5470    2.1500    0.8650 C.3     1  UNL1        0.0870
      4  O          5.1680    0.4460    2.3530 O.2     1  UNL1       -0.3000
      5  C          6.5440    0.6210   -0.7760 C.3     1  UNL1        0.0430
      6  C          7.2480   -0.5940   -1.1950 C.2     1  UNL1       -0.0440
      7  C          7.6360   -0.7560   -2.5090 C.2     1  UNL1        0.0080
      8  C          7.5460   -1.6110   -0.3050 C.2     1  UNL1        0.0540
      9  C          8.3060   -1.8950   -2.9470 C.2     1  UNL1        0.0510
     10  C          8.2150   -2.7620   -0.7150 C.2     1  UNL1        0.1660
     11  C          8.5900   -2.8940   -2.0360 C.2     1  UNL1        0.1650
     12  O          8.6400   -3.9210   -0.0660 O.2     1  UNL1       -0.4540
     13  O          9.2310   -4.1170   -2.1730 O.2     1  UNL1       -0.4540
     14  C          9.0320   -4.8970   -0.9970 C.3     1  UNL1        0.4680
@<TRIPOS>BOND
     1     9     7    1
     2     9    11    2
     3     7     6    2
     4    13    11    1
     5    13    14    1
     6    11    10    1
     7     6     5    1
     8     6     8    1
     9    14    12    1
    10     5     1    1
    11    10     8    2
    12    10    12    1
    13     1     2    1
    14     3     2    1
    15     2     4    2
