@<TRIPOS>MOLECULE
/home/cewinharhar/GITHUB/reincatalyze/data/processed/docking_pred/2023-May-31-1603_sub9_nm5_bs15_s42_ex16_mel10_mts1000_k50_ec05_g099_lra3e-4_lrc9e-3/fbb46063794dc265e75c2cefc4e8ae8bb502d9b1_ligand_9.pdbqt
 14 15 0 0 0
SMALL
GASTEIGER

@<TRIPOS>ATOM
      1  C          5.6070    1.8510    1.3170 C.3     1  UNL1        0.0800
      2  C          5.1380    0.6610    2.0540 C.2     1  UNL1        0.1300
      3  C          6.0580   -0.4780    2.2450 C.3     1  UNL1        0.0870
      4  O          4.0110    0.6430    2.4850 O.2     1  UNL1       -0.3000
      5  C          5.4230    1.6800   -0.1770 C.3     1  UNL1        0.0430
      6  C          6.5580    0.9560   -0.7560 C.2     1  UNL1       -0.0440
      7  C          7.8450    1.4180   -0.5740 C.2     1  UNL1        0.0080
      8  C          6.3890   -0.2010   -1.4960 C.2     1  UNL1        0.0540
      9  C          8.9500    0.7610   -1.1080 C.2     1  UNL1        0.0510
     10  C          7.4750   -0.8810   -2.0420 C.2     1  UNL1        0.1660
     11  C          8.7490   -0.3930   -1.8420 C.2     1  UNL1        0.1650
     12  O          7.6100   -2.0370   -2.8100 O.2     1  UNL1       -0.4540
     13  O          9.6340   -1.2470   -2.4840 O.2     1  UNL1       -0.4540
     14  C          8.9120   -2.1400   -3.3280 C.3     1  UNL1        0.4680
@<TRIPOS>BOND
     1    14    12    1
     2    14    13    1
     3    12    10    1
     4    13    11    1
     5    10    11    2
     6    10     8    1
     7    11     9    1
     8     8     6    2
     9     9     7    2
    10     6     7    1
    11     6     5    1
    12     5     1    1
    13     1     2    1
    14     2     3    1
    15     2     4    2
