@<TRIPOS>MOLECULE
/home/cewinharhar/GITHUB/reincatalyze/data/processed/docking_pred/2023-May-31-1603_sub9_nm5_bs15_s42_ex16_mel10_mts1000_k50_ec05_g099_lra3e-4_lrc9e-3/fbb46063794dc265e75c2cefc4e8ae8bb502d9b1_ligand_9.pdbqt
 14 15 0 0 0
SMALL
GASTEIGER

@<TRIPOS>ATOM
      1  C          8.3290    0.2020   -2.5560 C.3     1  UNL1        0.0800
      2  C          8.0240   -1.2360   -2.7020 C.2     1  UNL1        0.1300
      3  C          9.1290   -2.1880   -2.9270 C.3     1  UNL1        0.0870
      4  O          6.8760   -1.6020   -2.6350 O.2     1  UNL1       -0.3000
      5  C          8.8690    0.5100   -1.1750 C.3     1  UNL1        0.0430
      6  C          7.7980    0.4440   -0.1760 C.2     1  UNL1       -0.0440
      7  C          7.7930   -0.5550    0.7740 C.2     1  UNL1        0.0080
      8  C          6.7660    1.3660   -0.1480 C.2     1  UNL1        0.0540
      9  C          6.7940   -0.6530    1.7390 C.2     1  UNL1        0.0510
     10  C          5.7530    1.2930    0.8050 C.2     1  UNL1        0.1660
     11  C          5.7760    0.2820    1.7430 C.2     1  UNL1        0.1650
     12  O          4.6180    2.0560    1.0750 O.2     1  UNL1       -0.4540
     13  O          4.6670    0.4390    2.5610 O.2     1  UNL1       -0.4540
     14  C          3.7790    1.3950    1.9870 C.3     1  UNL1        0.4680
@<TRIPOS>BOND
     1     3     2    1
     2     2     4    2
     3     2     1    1
     4     1     5    1
     5     5     6    1
     6     6     8    2
     7     6     7    1
     8     8    10    1
     9     7     9    2
    10    10    12    1
    11    10    11    2
    12    12    14    1
    13     9    11    1
    14    11    13    1
    15    14    13    1
