@<TRIPOS>MOLECULE
/home/cewinharhar/GITHUB/reincatalyze/data/processed/docking_pred/2023-May-31-1603_sub9_nm5_bs15_s42_ex16_mel10_mts1000_k50_ec05_g099_lra3e-4_lrc9e-3/fc1d4194c005f01296b9c57c803e441f6dc40ccd_ligand_9.pdbqt
 14 15 0 0 0
SMALL
GASTEIGER

@<TRIPOS>ATOM
      1  C          6.5860    0.5250    0.9560 C.3     1  UNL1        0.0800
      2  C          5.2670    1.0420    1.3730 C.2     1  UNL1        0.1300
      3  C          4.6480    2.1400    0.6050 C.3     1  UNL1        0.0870
      4  O          4.7230    0.5550    2.3330 O.2     1  UNL1       -0.3000
      5  C          6.7520    0.5940   -0.5480 C.3     1  UNL1        0.0430
      6  C          7.3940   -0.6240   -1.0520 C.2     1  UNL1       -0.0440
      7  C          7.7100   -0.7420   -2.3890 C.2     1  UNL1        0.0080
      8  C          7.7020   -1.6870   -0.2210 C.2     1  UNL1        0.0540
      9  C          8.3190   -1.8820   -2.9080 C.2     1  UNL1        0.0510
     10  C          8.3100   -2.8400   -0.7110 C.2     1  UNL1        0.1660
     11  C          8.6150   -2.9270   -2.0530 C.2     1  UNL1        0.1650
     12  O          8.7290   -4.0380   -0.1320 O.2     1  UNL1       -0.4540
     13  O          9.2060   -4.1630   -2.2720 O.2     1  UNL1       -0.4540
     14  C          9.0400   -4.9850   -1.1210 C.3     1  UNL1        0.4680
@<TRIPOS>BOND
     1     9     7    1
     2     9    11    2
     3     7     6    2
     4    13    11    1
     5    13    14    1
     6    11    10    1
     7    14    12    1
     8     6     5    1
     9     6     8    1
    10    10     8    2
    11    10    12    1
    12     5     1    1
    13     3     2    1
    14     1     2    1
    15     2     4    2
