@<TRIPOS>MOLECULE
/home/cewinharhar/GITHUB/reincatalyze/data/processed/docking_pred/2023-May-31-1603_sub9_nm5_bs15_s42_ex16_mel10_mts1000_k50_ec05_g099_lra3e-4_lrc9e-3/fc1d4194c005f01296b9c57c803e441f6dc40ccd_ligand_9.pdbqt
 14 15 0 0 0
SMALL
GASTEIGER

@<TRIPOS>ATOM
      1  C          5.6680    1.3590   -0.3130 C.3     1  UNL1        0.0800
      2  C          4.9880    1.2590    0.9940 C.2     1  UNL1        0.1300
      3  C          5.2290    0.0750    1.8420 C.3     1  UNL1        0.0870
      4  O          4.2490    2.1470    1.3410 O.2     1  UNL1       -0.3000
      5  C          7.1640    1.1660   -0.1700 C.3     1  UNL1        0.0430
      6  C          7.5810   -0.0950   -0.7890 C.2     1  UNL1       -0.0440
      7  C          7.6100   -0.2210   -2.1620 C.2     1  UNL1        0.0080
      8  C          7.9570   -1.1930   -0.0340 C.2     1  UNL1        0.0540
      9  C          7.9990   -1.4020   -2.7890 C.2     1  UNL1        0.0510
     10  C          8.3510   -2.3870   -0.6330 C.2     1  UNL1        0.1660
     11  C          8.3690   -2.4810   -2.0090 C.2     1  UNL1        0.1650
     12  O          8.7720   -3.6240   -0.1470 O.2     1  UNL1       -0.4540
     13  O          8.7940   -3.7600   -2.3390 O.2     1  UNL1       -0.4540
     14  C          8.7930   -4.5810   -1.1750 C.3     1  UNL1        0.4680
@<TRIPOS>BOND
     1     9     7    1
     2     9    11    2
     3    13    11    1
     4    13    14    1
     5     7     6    2
     6    11    10    1
     7    14    12    1
     8     6     5    1
     9     6     8    1
    10    10    12    1
    11    10     8    2
    12     1     5    1
    13     1     2    1
    14     2     4    2
    15     2     3    1
