MODEL 1
REMARK VINA RESULT:      -7.1      0.000      0.000
REMARK SMILES CC(=O)CCc1ccc2c(c1)OCO2
REMARK SMILES IDX 4 1 2 2 1 3 3 4 5 5 6 6 7 7 11 8 8 9 10 10 9 11 12 12 14 13
REMARK SMILES IDX 13 14
REMARK H PARENT
REMARK Flexibility Score: inf
ROOT
ATOM      1  C   UNL     1       9.737   1.312   2.618  1.00  0.00     0.080 C 
ENDROOT
BRANCH   1   2
ATOM      2  C   UNL     1      11.170   0.960   2.659  1.00  0.00     0.130 C 
ATOM      3  C   UNL     1      12.075   1.724   3.541  1.00  0.00     0.087 C 
ATOM      4  O   UNL     1      11.573   0.056   1.970  1.00  0.00    -0.300 OA
ENDBRANCH   1   2
BRANCH   1   5
ATOM      5  C   UNL     1       9.389   2.054   1.344  1.00  0.00     0.043 C 
BRANCH   5   6
ATOM      6  C   UNL     1       8.660   1.179   0.421  1.00  0.00    -0.044 A 
ATOM      7  C   UNL     1       7.298   1.005   0.556  1.00  0.00     0.008 A 
ATOM      8  C   UNL     1       9.297   0.504  -0.604  1.00  0.00     0.054 A 
ATOM      9  C   UNL     1       6.569   0.183  -0.299  1.00  0.00     0.051 A 
ATOM     10  C   UNL     1       8.594  -0.326  -1.475  1.00  0.00     0.166 A 
ATOM     11  C   UNL     1       7.233  -0.479  -1.314  1.00  0.00     0.165 A 
ATOM     12  O   UNL     1       8.954  -1.112  -2.570  1.00  0.00    -0.454 OA
ATOM     13  O   UNL     1       6.786  -1.347  -2.300  1.00  0.00    -0.454 OA
ATOM     14  C   UNL     1       7.902  -1.968  -2.934  1.00  0.00     0.468 C 
ENDBRANCH   5   6
ENDBRANCH   1   5
TORSDOF 3
ENDMDL
MODEL 2
REMARK VINA RESULT:      -7.1      2.775      5.469
REMARK SMILES CC(=O)CCc1ccc2c(c1)OCO2
REMARK SMILES IDX 4 1 2 2 1 3 3 4 5 5 6 6 7 7 11 8 8 9 10 10 9 11 12 12 14 13
REMARK SMILES IDX 13 14
REMARK H PARENT
REMARK Flexibility Score: inf
ROOT
ATOM      1  C   UNL     1       5.940   0.077   1.651  1.00  0.00     0.080 C 
ENDROOT
BRANCH   1   2
ATOM      2  C   UNL     1       4.912   1.122   1.478  1.00  0.00     0.130 C 
ATOM      3  C   UNL     1       5.041   2.085   0.366  1.00  0.00     0.087 C 
ATOM      4  O   UNL     1       3.986   1.168   2.250  1.00  0.00    -0.300 OA
ENDBRANCH   1   2
BRANCH   1   5
ATOM      5  C   UNL     1       7.076   0.257   0.664  1.00  0.00     0.043 C 
BRANCH   5   6
ATOM      6  C   UNL     1       8.319   0.592   1.366  1.00  0.00    -0.044 A 
ATOM      7  C   UNL     1       8.372   1.687   2.204  1.00  0.00     0.008 A 
ATOM      8  C   UNL     1       9.470  -0.161   1.218  1.00  0.00     0.054 A 
ATOM      9  C   UNL     1       9.532   2.040   2.887  1.00  0.00     0.051 A 
ATOM     10  C   UNL     1      10.645   0.167   1.888  1.00  0.00     0.166 A 
ATOM     11  C   UNL     1      10.666   1.268   2.719  1.00  0.00     0.165 A 
ATOM     12  O   UNL     1      11.924  -0.388   1.936  1.00  0.00    -0.454 OA
ATOM     13  O   UNL     1      11.942   1.369   3.255  1.00  0.00    -0.454 OA
ATOM     14  C   UNL     1      12.824   0.490   2.561  1.00  0.00     0.468 C 
ENDBRANCH   5   6
ENDBRANCH   1   5
TORSDOF 3
ENDMDL
MODEL 3
REMARK VINA RESULT:      -7.0      2.723      3.972
REMARK SMILES CC(=O)CCc1ccc2c(c1)OCO2
REMARK SMILES IDX 4 1 2 2 1 3 3 4 5 5 6 6 7 7 11 8 8 9 10 10 9 11 12 12 14 13
REMARK SMILES IDX 13 14
REMARK H PARENT
REMARK Flexibility Score: inf
ROOT
ATOM      1  C   UNL     1       5.525   1.884   1.333  1.00  0.00     0.080 C 
ENDROOT
BRANCH   1   2
ATOM      2  C   UNL     1       5.026   0.684   2.033  1.00  0.00     0.130 C 
ATOM      3  C   UNL     1       5.902  -0.500   2.148  1.00  0.00     0.087 C 
ATOM      4  O   UNL     1       3.913   0.695   2.497  1.00  0.00    -0.300 OA
ENDBRANCH   1   2
BRANCH   1   5
ATOM      5  C   UNL     1       5.365   1.751  -0.168  1.00  0.00     0.043 C 
BRANCH   5   6
ATOM      6  C   UNL     1       6.495   1.016  -0.742  1.00  0.00    -0.044 A 
ATOM      7  C   UNL     1       7.790   1.421  -0.492  1.00  0.00     0.008 A 
ATOM      8  C   UNL     1       6.313  -0.096  -1.547  1.00  0.00     0.054 A 
ATOM      9  C   UNL     1       8.890   0.752  -1.019  1.00  0.00     0.051 A 
ATOM     10  C   UNL     1       7.395  -0.786  -2.088  1.00  0.00     0.166 A 
ATOM     11  C   UNL     1       8.677  -0.355  -1.819  1.00  0.00     0.165 A 
ATOM     12  O   UNL     1       7.519  -1.906  -2.909  1.00  0.00    -0.454 OA
ATOM     13  O   UNL     1       9.555  -1.208  -2.472  1.00  0.00    -0.454 OA
ATOM     14  C   UNL     1       8.834  -2.031  -3.385  1.00  0.00     0.468 C 
ENDBRANCH   5   6
ENDBRANCH   1   5
TORSDOF 3
ENDMDL
MODEL 4
REMARK VINA RESULT:      -7.0      1.349      5.161
REMARK SMILES CC(=O)CCc1ccc2c(c1)OCO2
REMARK SMILES IDX 4 1 2 2 1 3 3 4 5 5 6 6 7 7 11 8 8 9 10 10 9 11 12 12 14 13
REMARK SMILES IDX 13 14
REMARK H PARENT
REMARK Flexibility Score: inf
ROOT
ATOM      1  C   UNL     1       6.471   0.468  -1.012  1.00  0.00     0.080 C 
ENDROOT
BRANCH   1   2
ATOM      2  C   UNL     1       7.120  -0.406  -2.009  1.00  0.00     0.130 C 
ATOM      3  C   UNL     1       8.249   0.119  -2.803  1.00  0.00     0.087 C 
ATOM      4  O   UNL     1       6.714  -1.533  -2.155  1.00  0.00    -0.300 OA
ENDBRANCH   1   2
BRANCH   1   5
ATOM      5  C   UNL     1       6.536  -0.138   0.375  1.00  0.00     0.043 C 
BRANCH   5   6
ATOM      6  C   UNL     1       7.746   0.303   1.074  1.00  0.00    -0.044 A 
ATOM      7  C   UNL     1       7.732   1.454   1.833  1.00  0.00     0.008 A 
ATOM      8  C   UNL     1       8.933  -0.405   1.001  1.00  0.00     0.054 A 
ATOM      9  C   UNL     1       8.860   1.908   2.511  1.00  0.00     0.051 A 
ATOM     10  C   UNL     1      10.077   0.023   1.669  1.00  0.00     0.166 A 
ATOM     11  C   UNL     1      10.031   1.179   2.420  1.00  0.00     0.165 A 
ATOM     12  O   UNL     1      11.378  -0.467   1.779  1.00  0.00    -0.454 OA
ATOM     13  O   UNL     1      11.289   1.376   2.971  1.00  0.00    -0.454 OA
ATOM     14  C   UNL     1      12.224   0.493   2.358  1.00  0.00     0.468 C 
ENDBRANCH   5   6
ENDBRANCH   1   5
TORSDOF 3
ENDMDL
MODEL 5
REMARK VINA RESULT:      -6.9      3.338      4.290
REMARK SMILES CC(=O)CCc1ccc2c(c1)OCO2
REMARK SMILES IDX 4 1 2 2 1 3 3 4 5 5 6 6 7 7 11 8 8 9 10 10 9 11 12 12 14 13
REMARK SMILES IDX 13 14
REMARK H PARENT
REMARK Flexibility Score: inf
ROOT
ATOM      1  C   UNL     1       6.492   1.322   0.374  1.00  0.00     0.080 C 
ENDROOT
BRANCH   1   2
ATOM      2  C   UNL     1       5.385   1.087   1.323  1.00  0.00     0.130 C 
ATOM      3  C   UNL     1       5.372  -0.154   2.122  1.00  0.00     0.087 C 
ATOM      4  O   UNL     1       4.514   1.915   1.426  1.00  0.00    -0.300 OA
ENDBRANCH   1   2
BRANCH   1   5
ATOM      5  C   UNL     1       6.120   0.875  -1.024  1.00  0.00     0.043 C 
BRANCH   5   6
ATOM      6  C   UNL     1       6.947  -0.262  -1.439  1.00  0.00    -0.044 A 
ATOM      7  C   UNL     1       7.453  -0.326  -2.721  1.00  0.00     0.008 A 
ATOM      8  C   UNL     1       7.250  -1.301  -0.575  1.00  0.00     0.054 A 
ATOM      9  C   UNL     1       8.241  -1.388  -3.154  1.00  0.00     0.051 A 
ATOM     10  C   UNL     1       8.037  -2.377  -0.980  1.00  0.00     0.166 A 
ATOM     11  C   UNL     1       8.527  -2.411  -2.269  1.00  0.00     0.165 A 
ATOM     12  O   UNL     1       8.496  -3.534  -0.352  1.00  0.00    -0.454 OA
ATOM     13  O   UNL     1       9.269  -3.575  -2.407  1.00  0.00    -0.454 OA
ATOM     14  C   UNL     1       9.035  -4.428  -1.290  1.00  0.00     0.468 C 
ENDBRANCH   5   6
ENDBRANCH   1   5
TORSDOF 3
ENDMDL
