@<TRIPOS>MOLECULE
/home/cewinharhar/GITHUB/reincatalyze/data/processed/docking_pred/2023-May-31-1603_sub9_nm5_bs15_s42_ex16_mel10_mts1000_k50_ec05_g099_lra3e-4_lrc9e-3/fd0126b23dad862f417327e64da043fff24e40de_ligand_9.pdbqt
 14 15 0 0 0
SMALL
GASTEIGER

@<TRIPOS>ATOM
      1  C          5.5250    1.8840    1.3330 C.3     1  UNL1        0.0800
      2  C          5.0260    0.6840    2.0330 C.2     1  UNL1        0.1300
      3  C          5.9020   -0.5000    2.1480 C.3     1  UNL1        0.0870
      4  O          3.9130    0.6950    2.4970 O.2     1  UNL1       -0.3000
      5  C          5.3650    1.7510   -0.1680 C.3     1  UNL1        0.0430
      6  C          6.4950    1.0160   -0.7420 C.2     1  UNL1       -0.0440
      7  C          7.7900    1.4210   -0.4920 C.2     1  UNL1        0.0080
      8  C          6.3130   -0.0960   -1.5470 C.2     1  UNL1        0.0540
      9  C          8.8900    0.7520   -1.0190 C.2     1  UNL1        0.0510
     10  C          7.3950   -0.7860   -2.0880 C.2     1  UNL1        0.1660
     11  C          8.6770   -0.3550   -1.8190 C.2     1  UNL1        0.1650
     12  O          7.5190   -1.9060   -2.9090 O.2     1  UNL1       -0.4540
     13  O          9.5550   -1.2080   -2.4720 O.2     1  UNL1       -0.4540
     14  C          8.8340   -2.0310   -3.3850 C.3     1  UNL1        0.4680
@<TRIPOS>BOND
     1    14    12    1
     2    14    13    1
     3    12    10    1
     4    13    11    1
     5    10    11    2
     6    10     8    1
     7    11     9    1
     8     8     6    2
     9     9     7    2
    10     6     7    1
    11     6     5    1
    12     5     1    1
    13     1     2    1
    14     2     3    1
    15     2     4    2
