@<TRIPOS>MOLECULE
/home/cewinharhar/GITHUB/reincatalyze/data/processed/docking_pred/2023-May-31-1603_sub9_nm5_bs15_s42_ex16_mel10_mts1000_k50_ec05_g099_lra3e-4_lrc9e-3/fd751eb3811fc03d22e30b1993ea0072812fb772_ligand_9.pdbqt
 14 15 0 0 0
SMALL
GASTEIGER

@<TRIPOS>ATOM
      1  C          5.2870   -0.0910    1.9730 C.3     1  UNL1        0.0800
      2  C          4.4640    1.1220    1.8020 C.2     1  UNL1        0.1300
      3  C          4.8670    2.1320    0.8020 C.3     1  UNL1        0.0870
      4  O          3.4790    1.2650    2.4830 O.2     1  UNL1       -0.3000
      5  C          6.7410    0.1810    1.6460 C.3     1  UNL1        0.0430
      6  C          7.2190   -0.7470    0.6170 C.2     1  UNL1       -0.0440
      7  C          7.0840   -0.4350   -0.7200 C.2     1  UNL1        0.0080
      8  C          7.8150   -1.9540    0.9390 C.2     1  UNL1        0.0540
      9  C          7.5240   -1.2890   -1.7280 C.2     1  UNL1        0.0510
     10  C          8.2660   -2.8290   -0.0470 C.2     1  UNL1        0.1660
     11  C          8.1160   -2.4880   -1.3750 C.2     1  UNL1        0.1650
     12  O          8.8870   -4.0770   -0.0270 O.2     1  UNL1       -0.4540
     13  O          8.6410   -3.5200   -2.1380 O.2     1  UNL1       -0.4540
     14  C          8.8870   -4.6520   -1.3080 C.3     1  UNL1        0.4680
@<TRIPOS>BOND
     1    13    11    1
     2    13    14    1
     3     9    11    2
     4     9     7    1
     5    11    10    1
     6    14    12    1
     7     7     6    2
     8    10    12    1
     9    10     8    2
    10     6     8    1
    11     6     5    1
    12     3     2    1
    13     5     1    1
    14     2     1    1
    15     2     4    2
