MODEL 1
REMARK VINA RESULT:      -7.5      0.000      0.000
REMARK SMILES CC(=O)CCc1ccc2c(c1)OCO2
REMARK SMILES IDX 4 1 2 2 1 3 3 4 5 5 6 6 7 7 11 8 8 9 10 10 9 11 12 12 14 13
REMARK SMILES IDX 13 14
REMARK H PARENT
REMARK Flexibility Score: inf
ROOT
ATOM      1  C   UNL     1       5.633   1.823   1.344  1.00  0.00     0.080 C 
ENDROOT
BRANCH   1   2
ATOM      2  C   UNL     1       5.135   0.633   2.063  1.00  0.00     0.130 C 
ATOM      3  C   UNL     1       6.035  -0.522   2.254  1.00  0.00     0.087 C 
ATOM      4  O   UNL     1       4.003   0.629   2.479  1.00  0.00    -0.300 OA
ENDBRANCH   1   2
BRANCH   1   5
ATOM      5  C   UNL     1       5.448   1.678  -0.152  1.00  0.00     0.043 C 
BRANCH   5   6
ATOM      6  C   UNL     1       6.577   0.952  -0.742  1.00  0.00    -0.044 A 
ATOM      7  C   UNL     1       7.865   1.420  -0.584  1.00  0.00     0.008 A 
ATOM      8  C   UNL     1       6.399  -0.210  -1.472  1.00  0.00     0.054 A 
ATOM      9  C   UNL     1       8.964   0.761  -1.129  1.00  0.00     0.051 A 
ATOM     10  C   UNL     1       7.479  -0.891  -2.029  1.00  0.00     0.166 A 
ATOM     11  C   UNL     1       8.755  -0.398  -1.852  1.00  0.00     0.165 A 
ATOM     12  O   UNL     1       7.606  -2.053  -2.790  1.00  0.00    -0.454 OA
ATOM     13  O   UNL     1       9.632  -1.255  -2.501  1.00  0.00    -0.454 OA
ATOM     14  C   UNL     1       8.900  -2.156  -3.327  1.00  0.00     0.468 C 
ENDBRANCH   5   6
ENDBRANCH   1   5
TORSDOF 3
ENDMDL
MODEL 2
REMARK VINA RESULT:      -7.3      1.936      2.358
REMARK SMILES CC(=O)CCc1ccc2c(c1)OCO2
REMARK SMILES IDX 4 1 2 2 1 3 3 4 5 5 6 6 7 7 11 8 8 9 10 10 9 11 12 12 14 13
REMARK SMILES IDX 13 14
REMARK H PARENT
REMARK Flexibility Score: inf
ROOT
ATOM      1  C   UNL     1       5.673   1.236  -0.233  1.00  0.00     0.080 C 
ENDROOT
BRANCH   1   2
ATOM      2  C   UNL     1       5.046   1.231   1.104  1.00  0.00     0.130 C 
ATOM      3  C   UNL     1       5.308   0.102   2.019  1.00  0.00     0.087 C 
ATOM      4  O   UNL     1       4.331   2.149   1.421  1.00  0.00    -0.300 OA
ENDBRANCH   1   2
BRANCH   1   5
ATOM      5  C   UNL     1       7.177   1.080  -0.134  1.00  0.00     0.043 C 
BRANCH   5   6
ATOM      6  C   UNL     1       7.600  -0.202  -0.705  1.00  0.00    -0.044 A 
ATOM      7  C   UNL     1       7.642  -0.375  -2.073  1.00  0.00     0.008 A 
ATOM      8  C   UNL     1       7.968  -1.272   0.091  1.00  0.00     0.054 A 
ATOM      9  C   UNL     1       8.037  -1.577  -2.655  1.00  0.00     0.051 A 
ATOM     10  C   UNL     1       8.368  -2.486  -0.462  1.00  0.00     0.166 A 
ATOM     11  C   UNL     1       8.399  -2.628  -1.834  1.00  0.00     0.165 A 
ATOM     12  O   UNL     1       8.784  -3.706   0.071  1.00  0.00    -0.454 OA
ATOM     13  O   UNL     1       8.828  -3.917  -2.115  1.00  0.00    -0.454 OA
ATOM     14  C   UNL     1       8.815  -4.698  -0.923  1.00  0.00     0.468 C 
ENDBRANCH   5   6
ENDBRANCH   1   5
TORSDOF 3
ENDMDL
MODEL 3
REMARK VINA RESULT:      -7.3      2.086      2.633
REMARK SMILES CC(=O)CCc1ccc2c(c1)OCO2
REMARK SMILES IDX 4 1 2 2 1 3 3 4 5 5 6 6 7 7 11 8 8 9 10 10 9 11 12 12 14 13
REMARK SMILES IDX 13 14
REMARK H PARENT
REMARK Flexibility Score: inf
ROOT
ATOM      1  C   UNL     1       5.454   0.007   1.885  1.00  0.00     0.080 C 
ENDROOT
BRANCH   1   2
ATOM      2  C   UNL     1       4.617   1.197   1.636  1.00  0.00     0.130 C 
ATOM      3  C   UNL     1       5.013   2.148   0.578  1.00  0.00     0.087 C 
ATOM      4  O   UNL     1       3.626   1.369   2.302  1.00  0.00    -0.300 OA
ENDBRANCH   1   2
BRANCH   1   5
ATOM      5  C   UNL     1       6.895   0.256   1.490  1.00  0.00     0.043 C 
BRANCH   5   6
ATOM      6  C   UNL     1       7.340  -0.741   0.512  1.00  0.00    -0.044 A 
ATOM      7  C   UNL     1       7.169  -0.516  -0.839  1.00  0.00     0.008 A 
ATOM      8  C   UNL     1       7.939  -1.928   0.896  1.00  0.00     0.054 A 
ATOM      9  C   UNL     1       7.578  -1.437  -1.800  1.00  0.00     0.051 A 
ATOM     10  C   UNL     1       8.358  -2.868  -0.042  1.00  0.00     0.166 A 
ATOM     11  C   UNL     1       8.173  -2.613  -1.385  1.00  0.00     0.165 A 
ATOM     12  O   UNL     1       8.973  -4.116   0.042  1.00  0.00    -0.454 OA
ATOM     13  O   UNL     1       8.672  -3.697  -2.093  1.00  0.00    -0.454 OA
ATOM     14  C   UNL     1       8.935  -4.774  -1.198  1.00  0.00     0.468 C 
ENDBRANCH   5   6
ENDBRANCH   1   5
TORSDOF 3
ENDMDL
MODEL 4
REMARK VINA RESULT:      -7.1      1.955      2.545
REMARK SMILES CC(=O)CCc1ccc2c(c1)OCO2
REMARK SMILES IDX 4 1 2 2 1 3 3 4 5 5 6 6 7 7 11 8 8 9 10 10 9 11 12 12 14 13
REMARK SMILES IDX 13 14
REMARK H PARENT
REMARK Flexibility Score: inf
ROOT
ATOM      1  C   UNL     1       6.803   0.731   1.146  1.00  0.00     0.080 C 
ENDROOT
BRANCH   1   2
ATOM      2  C   UNL     1       5.408   1.141   1.402  1.00  0.00     0.130 C 
ATOM      3  C   UNL     1       4.780   2.150   0.525  1.00  0.00     0.087 C 
ATOM      4  O   UNL     1       4.808   0.643   2.322  1.00  0.00    -0.300 OA
ENDBRANCH   1   2
BRANCH   1   5
ATOM      5  C   UNL     1       7.156   0.871  -0.320  1.00  0.00     0.043 C 
BRANCH   5   6
ATOM      6  C   UNL     1       7.638  -0.405  -0.858  1.00  0.00    -0.044 A 
ATOM      7  C   UNL     1       7.817  -0.565  -2.216  1.00  0.00     0.008 A 
ATOM      8  C   UNL     1       7.926  -1.482  -0.039  1.00  0.00     0.054 A 
ATOM      9  C   UNL     1       8.271  -1.760  -2.767  1.00  0.00     0.051 A 
ATOM     10  C   UNL     1       8.382  -2.691  -0.561  1.00  0.00     0.166 A 
ATOM     11  C   UNL     1       8.551  -2.819  -1.924  1.00  0.00     0.165 A 
ATOM     12  O   UNL     1       8.744  -3.915  -0.001  1.00  0.00    -0.454 OA
ATOM     13  O   UNL     1       9.008  -4.105  -2.173  1.00  0.00    -0.454 OA
ATOM     14  C   UNL     1       8.877  -4.897  -0.996  1.00  0.00     0.468 C 
ENDBRANCH   5   6
ENDBRANCH   1   5
TORSDOF 3
ENDMDL
MODEL 5
REMARK VINA RESULT:      -7.0      1.201      5.205
REMARK SMILES CC(=O)CCc1ccc2c(c1)OCO2
REMARK SMILES IDX 4 1 2 2 1 3 3 4 5 5 6 6 7 7 11 8 8 9 10 10 9 11 12 12 14 13
REMARK SMILES IDX 13 14
REMARK H PARENT
REMARK Flexibility Score: inf
ROOT
ATOM      1  C   UNL     1       8.273   0.212  -2.561  1.00  0.00     0.080 C 
ENDROOT
BRANCH   1   2
ATOM      2  C   UNL     1       7.984  -1.229  -2.702  1.00  0.00     0.130 C 
ATOM      3  C   UNL     1       9.089  -2.159  -3.012  1.00  0.00     0.087 C 
ATOM      4  O   UNL     1       6.851  -1.618  -2.561  1.00  0.00    -0.300 OA
ENDBRANCH   1   2
BRANCH   1   5
ATOM      5  C   UNL     1       8.815   0.531  -1.184  1.00  0.00     0.043 C 
BRANCH   5   6
ATOM      6  C   UNL     1       7.752   0.445  -0.179  1.00  0.00    -0.044 A 
ATOM      7  C   UNL     1       7.749  -0.579   0.746  1.00  0.00     0.008 A 
ATOM      8  C   UNL     1       6.725   1.371  -0.117  1.00  0.00     0.054 A 
ATOM      9  C   UNL     1       6.757  -0.697   1.716  1.00  0.00     0.051 A 
ATOM     10  C   UNL     1       5.720   1.279   0.842  1.00  0.00     0.166 A 
ATOM     11  C   UNL     1       5.744   0.243   1.752  1.00  0.00     0.165 A 
ATOM     12  O   UNL     1       4.590   2.040   1.141  1.00  0.00    -0.454 OA
ATOM     13  O   UNL     1       4.643   0.385   2.584  1.00  0.00    -0.454 OA
ATOM     14  C   UNL     1       3.755   1.359   2.042  1.00  0.00     0.468 C 
ENDBRANCH   5   6
ENDBRANCH   1   5
TORSDOF 3
ENDMDL
