@<TRIPOS>MOLECULE
/home/cewinharhar/GITHUB/reincatalyze/data/processed/docking_pred/2023-Jun-01-2005_mainTest/25f547df8c587039729a955c6f4cb3c83005f49c_ligand_9.pdbqt
 14 15 0 0 0
SMALL
GASTEIGER

@<TRIPOS>ATOM
      1  C          6.8680    0.7820    1.2880 C.3     1  UNL1        0.0800
      2  C          5.4320    1.1530    1.4260 C.2     1  UNL1        0.1300
      3  C          4.7920    2.1470    0.5230 C.3     1  UNL1        0.0870
      4  O          4.7340    0.6490    2.2910 O.2     1  UNL1       -0.3000
      5  C          7.3500    0.9680   -0.1370 C.3     1  UNL1        0.0430
      6  C          7.6680   -0.3210   -0.7780 C.ar    1  UNL1       -0.0440
      7  C          7.6620   -0.4680   -2.1700 C.ar    1  UNL1        0.0080
      8  C          7.9810   -1.4120    0.0000 C.ar    1  UNL1        0.0540
      9  C          7.9690   -1.7010   -2.7160 C.ar    1  UNL1        0.0510
     10  C          8.2910   -2.6560   -0.5560 C.ar    1  UNL1        0.1660
     11  C          8.2840   -2.8020   -1.9260 C.ar    1  UNL1        0.1650
     12  O          8.6300   -3.8740   -0.0060 O.3     1  UNL1       -0.4540
     13  O          8.6240   -4.1190   -2.1900 O.3     1  UNL1       -0.4540
     14  C          8.9390   -4.8110   -1.0050 C.3     1  UNL1        0.4680
@<TRIPOS>BOND
     1     9     7   ar
     2     9    11   ar
     3    13    11    1
     4    13    14    1
     5     7     6   ar
     6    11    10   ar
     7    14    12    1
     8     6     5    1
     9     6     8   ar
    10    10    12    1
    11    10     8   ar
    12     5     1    1
    13     3     2    1
    14     1     2    1
    15     2     4    2
