MODEL 1
REMARK VINA RESULT:      -7.6      0.000      0.000
REMARK SMILES CC(=O)CCc1ccc2c(c1)OCO2
REMARK SMILES IDX 4 1 2 2 1 3 3 4 5 5 6 6 7 7 11 8 8 9 10 10 9 11 12 12 14 13
REMARK SMILES IDX 13 14
REMARK H PARENT
REMARK Flexibility Score: inf
ROOT
ATOM      1  C   UNL     1       5.505   1.917   1.267  1.00  0.00     0.080 C 
ENDROOT
BRANCH   1   2
ATOM      2  C   UNL     1       5.042   0.704   1.997  1.00  0.00     0.130 C 
ATOM      3  C   UNL     1       5.901  -0.503   2.130  1.00  0.00     0.087 C 
ATOM      4  O   UNL     1       3.936   0.667   2.511  1.00  0.00    -0.300 OA
ENDBRANCH   1   2
BRANCH   1   5
ATOM      5  C   UNL     1       5.386   1.735  -0.233  1.00  0.00     0.043 C 
BRANCH   5   6
ATOM      6  C   UNL     1       6.556   1.035  -0.793  1.00  0.00    -0.044 A 
ATOM      7  C   UNL     1       7.862   1.471  -0.540  1.00  0.00     0.008 A 
ATOM      8  C   UNL     1       6.372  -0.076  -1.584  1.00  0.00     0.054 A 
ATOM      9  C   UNL     1       8.921   0.774  -1.091  1.00  0.00     0.051 A 
ATOM     10  C   UNL     1       7.447  -0.778  -2.138  1.00  0.00     0.166 A 
ATOM     11  C   UNL     1       8.731  -0.349  -1.891  1.00  0.00     0.165 A 
ATOM     12  O   UNL     1       7.524  -1.894  -2.945  1.00  0.00    -0.454 OA
ATOM     13  O   UNL     1       9.580  -1.220  -2.556  1.00  0.00    -0.454 OA
ATOM     14  C   UNL     1       8.861  -2.267  -3.163  1.00  0.00     0.468 C 
ENDBRANCH   5   6
ENDBRANCH   1   5
TORSDOF 3
ENDMDL
MODEL 2
REMARK VINA RESULT:      -7.4      1.938      2.391
REMARK SMILES CC(=O)CCc1ccc2c(c1)OCO2
REMARK SMILES IDX 4 1 2 2 1 3 3 4 5 5 6 6 7 7 11 8 8 9 10 10 9 11 12 12 14 13
REMARK SMILES IDX 13 14
REMARK H PARENT
REMARK Flexibility Score: inf
ROOT
ATOM      1  C   UNL     1       5.749   1.376  -0.265  1.00  0.00     0.080 C 
ENDROOT
BRANCH   1   2
ATOM      2  C   UNL     1       5.099   1.272   1.072  1.00  0.00     0.130 C 
ATOM      3  C   UNL     1       5.369   0.128   1.984  1.00  0.00     0.087 C 
ATOM      4  O   UNL     1       4.321   2.128   1.458  1.00  0.00    -0.300 OA
ENDBRANCH   1   2
BRANCH   1   5
ATOM      5  C   UNL     1       7.238   1.106  -0.175  1.00  0.00     0.043 C 
BRANCH   5   6
ATOM      6  C   UNL     1       7.599  -0.181  -0.794  1.00  0.00    -0.044 A 
ATOM      7  C   UNL     1       7.632  -0.343  -2.184  1.00  0.00     0.008 A 
ATOM      8  C   UNL     1       7.915  -1.257   0.004  1.00  0.00     0.054 A 
ATOM      9  C   UNL     1       7.979  -1.575  -2.709  1.00  0.00     0.051 A 
ATOM     10  C   UNL     1       8.265  -2.501  -0.531  1.00  0.00     0.166 A 
ATOM     11  C   UNL     1       8.297  -2.660  -1.899  1.00  0.00     0.165 A 
ATOM     12  O   UNL     1       8.615  -3.705   0.041  1.00  0.00    -0.454 OA
ATOM     13  O   UNL     1       8.671  -3.973  -2.140  1.00  0.00    -0.454 OA
ATOM     14  C   UNL     1       8.970  -4.645  -0.940  1.00  0.00     0.468 C 
ENDBRANCH   5   6
ENDBRANCH   1   5
TORSDOF 3
ENDMDL
MODEL 3
REMARK VINA RESULT:      -7.2      2.058      2.630
REMARK SMILES CC(=O)CCc1ccc2c(c1)OCO2
REMARK SMILES IDX 4 1 2 2 1 3 3 4 5 5 6 6 7 7 11 8 8 9 10 10 9 11 12 12 14 13
REMARK SMILES IDX 13 14
REMARK H PARENT
REMARK Flexibility Score: inf
ROOT
ATOM      1  C   UNL     1       5.411  -0.061   2.034  1.00  0.00     0.080 C 
ENDROOT
BRANCH   1   2
ATOM      2  C   UNL     1       4.556   1.130   1.770  1.00  0.00     0.130 C 
ATOM      3  C   UNL     1       4.894   2.114   0.707  1.00  0.00     0.087 C 
ATOM      4  O   UNL     1       3.546   1.335   2.425  1.00  0.00    -0.300 OA
ENDBRANCH   1   2
BRANCH   1   5
ATOM      5  C   UNL     1       6.847   0.190   1.620  1.00  0.00     0.043 C 
BRANCH   5   6
ATOM      6  C   UNL     1       7.277  -0.732   0.554  1.00  0.00    -0.044 A 
ATOM      7  C   UNL     1       7.158  -0.395  -0.800  1.00  0.00     0.008 A 
ATOM      8  C   UNL     1       7.812  -1.956   0.885  1.00  0.00     0.054 A 
ATOM      9  C   UNL     1       7.579  -1.301  -1.756  1.00  0.00     0.051 A 
ATOM     10  C   UNL     1       8.237  -2.868  -0.086  1.00  0.00     0.166 A 
ATOM     11  C   UNL     1       8.119  -2.538  -1.417  1.00  0.00     0.165 A 
ATOM     12  O   UNL     1       8.792  -4.128  -0.013  1.00  0.00    -0.454 OA
ATOM     13  O   UNL     1       8.611  -3.612  -2.142  1.00  0.00    -0.454 OA
ATOM     14  C   UNL     1       9.131  -4.604  -1.290  1.00  0.00     0.468 C 
ENDBRANCH   5   6
ENDBRANCH   1   5
TORSDOF 3
ENDMDL
MODEL 4
REMARK VINA RESULT:      -7.0      1.267      1.493
REMARK SMILES CC(=O)CCc1ccc2c(c1)OCO2
REMARK SMILES IDX 4 1 2 2 1 3 3 4 5 5 6 6 7 7 11 8 8 9 10 10 9 11 12 12 14 13
REMARK SMILES IDX 13 14
REMARK H PARENT
REMARK Flexibility Score: inf
ROOT
ATOM      1  C   UNL     1       6.394   1.227   0.886  1.00  0.00     0.080 C 
ENDROOT
BRANCH   1   2
ATOM      2  C   UNL     1       5.712   0.400   1.921  1.00  0.00     0.130 C 
ATOM      3  C   UNL     1       6.357  -0.805   2.508  1.00  0.00     0.087 C 
ATOM      4  O   UNL     1       4.595   0.691   2.319  1.00  0.00    -0.300 OA
ENDBRANCH   1   2
BRANCH   1   5
ATOM      5  C   UNL     1       5.880   0.904  -0.503  1.00  0.00     0.043 C 
BRANCH   5   6
ATOM      6  C   UNL     1       6.836   0.078  -1.261  1.00  0.00    -0.044 A 
ATOM      7  C   UNL     1       7.544   0.593  -2.354  1.00  0.00     0.008 A 
ATOM      8  C   UNL     1       7.047  -1.231  -0.894  1.00  0.00     0.054 A 
ATOM      9  C   UNL     1       8.429  -0.230  -3.027  1.00  0.00     0.051 A 
ATOM     10  C   UNL     1       7.944  -2.058  -1.578  1.00  0.00     0.166 A 
ATOM     11  C   UNL     1       8.640  -1.553  -2.654  1.00  0.00     0.165 A 
ATOM     12  O   UNL     1       8.323  -3.373  -1.411  1.00  0.00    -0.454 OA
ATOM     13  O   UNL     1       9.441  -2.579  -3.129  1.00  0.00    -0.454 OA
ATOM     14  C   UNL     1       9.340  -3.723  -2.315  1.00  0.00     0.468 C 
ENDBRANCH   5   6
ENDBRANCH   1   5
TORSDOF 3
ENDMDL
MODEL 5
REMARK VINA RESULT:      -7.0      1.993      2.580
REMARK SMILES CC(=O)CCc1ccc2c(c1)OCO2
REMARK SMILES IDX 4 1 2 2 1 3 3 4 5 5 6 6 7 7 11 8 8 9 10 10 9 11 12 12 14 13
REMARK SMILES IDX 13 14
REMARK H PARENT
REMARK Flexibility Score: inf
ROOT
ATOM      1  C   UNL     1       6.868   0.782   1.288  1.00  0.00     0.080 C 
ENDROOT
BRANCH   1   2
ATOM      2  C   UNL     1       5.432   1.153   1.426  1.00  0.00     0.130 C 
ATOM      3  C   UNL     1       4.792   2.147   0.523  1.00  0.00     0.087 C 
ATOM      4  O   UNL     1       4.734   0.649   2.291  1.00  0.00    -0.300 OA
ENDBRANCH   1   2
BRANCH   1   5
ATOM      5  C   UNL     1       7.350   0.968  -0.137  1.00  0.00     0.043 C 
BRANCH   5   6
ATOM      6  C   UNL     1       7.668  -0.321  -0.778  1.00  0.00    -0.044 A 
ATOM      7  C   UNL     1       7.662  -0.468  -2.170  1.00  0.00     0.008 A 
ATOM      8  C   UNL     1       7.981  -1.412   0.000  1.00  0.00     0.054 A 
ATOM      9  C   UNL     1       7.969  -1.701  -2.716  1.00  0.00     0.051 A 
ATOM     10  C   UNL     1       8.291  -2.656  -0.556  1.00  0.00     0.166 A 
ATOM     11  C   UNL     1       8.284  -2.802  -1.926  1.00  0.00     0.165 A 
ATOM     12  O   UNL     1       8.630  -3.874  -0.006  1.00  0.00    -0.454 OA
ATOM     13  O   UNL     1       8.624  -4.119  -2.190  1.00  0.00    -0.454 OA
ATOM     14  C   UNL     1       8.939  -4.811  -1.005  1.00  0.00     0.468 C 
ENDBRANCH   5   6
ENDBRANCH   1   5
TORSDOF 3
ENDMDL
