@<TRIPOS>MOLECULE
/home/cewinharhar/GITHUB/reincatalyze/data/processed/docking_pred/2023-Apr-25-2248_maxeplen10_maxtrainstep1000_exh16_gamma099_lrac3e-4_lrcr1e-3/00fabcb6e86abbd64330e8a307762c5d347247e8_ligand_2.pdbqt
 12 12 0 0 0
SMALL
GASTEIGER

@<TRIPOS>ATOM
      1  C          8.2900   -0.9260   -1.9040 C.3     1  UNL1        0.1270
      2  C          8.3800   -2.0400   -2.8640 C.2     1  UNL1        0.3030
      3  O          9.5040   -2.5650   -3.0890 O.2     1  UNL1       -0.2520
      4  O          7.2560   -2.5400   -3.5370 O.3     1  UNL1       -0.4810
      5  H          7.3130   -3.4580   -3.9580 H       1  UNL1        0.2960
      6  C          7.7090   -1.3630   -0.5710 C.3     1  UNL1        0.0470
      7  C          6.7570   -0.3480   -0.0460 C.2     1  UNL1       -0.0470
      8  C          6.3650    0.7260   -0.8320 C.2     1  UNL1        0.0040
      9  C          6.2280   -0.4080    1.2290 C.2     1  UNL1        0.0040
     10  C          5.4940    1.6870   -0.3720 C.2     1  UNL1        0.0000
     11  C          5.3550    0.5560    1.6890 C.2     1  UNL1        0.0000
     12  C          4.9710    1.6190    0.9040 C.2     1  UNL1        0.0000
@<TRIPOS>BOND
     1     5     4    1
     2     4     2    1
     3     3     2    2
     4     2     1    1
     5     1     6    1
     6     8    10    1
     7     8     7    2
     8     6     7    1
     9    10    12    2
    10     7     9    1
    11    12    11    1
    12     9    11    2
