@<TRIPOS>MOLECULE
/home/cewinharhar/GITHUB/reincatalyze/data/processed/docking_pred/2023-Apr-25-2248_maxeplen10_maxtrainstep1000_exh16_gamma099_lrac3e-4_lrcr1e-3/00fabcb6e86abbd64330e8a307762c5d347247e8_ligand_2.pdbqt
 12 12 0 0 0
SMALL
GASTEIGER

@<TRIPOS>ATOM
      1  C          5.5260    2.9800    0.0010 C.3     1  UNL1        0.1270
      2  C          6.2900    3.9460    0.8100 C.2     1  UNL1        0.3030
      3  O          7.0410    4.7750    0.2270 O.2     1  UNL1       -0.2520
      4  O          6.2120    3.9760    2.2100 O.3     1  UNL1       -0.4810
      5  H          7.0080    3.6580    2.7460 H       1  UNL1        0.2960
      6  C          4.8810    1.9010    0.8530 C.3     1  UNL1        0.0470
      7  C          5.7290    0.6820    0.9010 C.2     1  UNL1       -0.0470
      8  C          5.7920   -0.0920    2.0510 C.2     1  UNL1        0.0040
      9  C          6.4960    0.2620   -0.1700 C.2     1  UNL1        0.0040
     10  C          6.5760   -1.2200    2.1300 C.2     1  UNL1        0.0000
     11  C          7.2810   -0.8690   -0.0890 C.2     1  UNL1        0.0000
     12  C          7.3390   -1.6300    1.0550 C.2     1  UNL1        0.0000
@<TRIPOS>BOND
     1     9    11    1
     2     9     7    2
     3    11    12    2
     4     1     2    1
     5     1     6    1
     6     3     2    2
     7     2     4    1
     8     6     7    1
     9     7     8    1
    10    12    10    1
    11     8    10    2
    12     4     5    1
