@<TRIPOS>MOLECULE
/home/cewinharhar/GITHUB/reincatalyze/data/processed/docking_pred/2023-Apr-25-2248_maxeplen10_maxtrainstep1000_exh16_gamma099_lrac3e-4_lrcr1e-3/00fabcb6e86abbd64330e8a307762c5d347247e8_ligand_2.pdbqt
 12 12 0 0 0
SMALL
GASTEIGER

@<TRIPOS>ATOM
      1  C          8.4070   -0.6680   -2.1040 C.3     1  UNL1        0.1270
      2  C          8.3940   -1.9240   -2.8750 C.2     1  UNL1        0.3030
      3  O          7.2870   -2.4110   -3.2340 O.2     1  UNL1       -0.2520
      4  O          9.5730   -2.5970   -3.2270 O.3     1  UNL1       -0.4810
      5  H         10.4550   -2.1150   -3.1220 H       1  UNL1        0.2960
      6  C          7.0670    0.0440   -2.1450 C.3     1  UNL1        0.0470
      7  C          6.4880    0.1690   -0.7820 C.2     1  UNL1       -0.0470
      8  C          6.6280   -0.8560    0.1430 C.2     1  UNL1        0.0040
      9  C          5.7820    1.2840   -0.3680 C.2     1  UNL1        0.0040
     10  C          6.0950   -0.7750    1.4090 C.2     1  UNL1        0.0000
     11  C          5.2490    1.3630    0.9010 C.2     1  UNL1        0.0000
     12  C          5.3910    0.3420    1.8130 C.2     1  UNL1        0.0000
@<TRIPOS>BOND
     1     3     2    2
     2     4     5    1
     3     4     2    1
     4     2     1    1
     5     6     1    1
     6     6     7    1
     7     7     9    2
     8     7     8    1
     9     9    11    1
    10     8    10    2
    11    11    12    2
    12    10    12    1
