@<TRIPOS>MOLECULE
/home/cewinharhar/GITHUB/reincatalyze/data/processed/docking_pred/2023-Apr-25-2248_maxeplen10_maxtrainstep1000_exh16_gamma099_lrac3e-4_lrcr1e-3/00fabcb6e86abbd64330e8a307762c5d347247e8_ligand_2.pdbqt
 12 12 0 0 0
SMALL
GASTEIGER

@<TRIPOS>ATOM
      1  C          8.4140   -0.6840   -2.0880 C.3     1  UNL1        0.1270
      2  C          8.4080   -1.9270   -2.8800 C.2     1  UNL1        0.3030
      3  O          7.3040   -2.4230   -3.2330 O.2     1  UNL1       -0.2520
      4  O          9.5910   -2.5790   -3.2560 O.3     1  UNL1       -0.4810
      5  H         10.2810   -2.0620   -3.7850 H       1  UNL1        0.2960
      6  C          7.0670    0.0180   -2.1120 C.3     1  UNL1        0.0470
      7  C          6.4860    0.1020   -0.7470 C.2     1  UNL1       -0.0470
      8  C          5.8060    1.2390   -0.3360 C.2     1  UNL1        0.0040
      9  C          6.5960   -0.9210    0.1780 C.2     1  UNL1        0.0040
     10  C          5.2660    1.3520    0.9250 C.2     1  UNL1        0.0000
     11  C          6.0540   -0.8070    1.4400 C.2     1  UNL1        0.0000
     12  C          5.3810    0.3250    1.8400 C.2     1  UNL1        0.0000
@<TRIPOS>BOND
     1     5     4    1
     2     4     2    1
     3     3     2    2
     4     2     1    1
     5     6     1    1
     6     6     7    1
     7     7     8    2
     8     7     9    1
     9     8    10    1
    10     9    11    2
    11    10    12    2
    12    11    12    1
