@<TRIPOS>MOLECULE
/home/cewinharhar/GITHUB/reincatalyze/data/processed/docking_pred/2023-Apr-25-2248_maxeplen10_maxtrainstep1000_exh16_gamma099_lrac3e-4_lrcr1e-3/00fabcb6e86abbd64330e8a307762c5d347247e8_ligand_2.pdbqt
 12 12 0 0 0
SMALL
GASTEIGER

@<TRIPOS>ATOM
      1  C          5.0080    1.7910    0.7300 C.3     1  UNL1        0.1270
      2  C          4.4740    1.1150    1.9250 C.2     1  UNL1        0.3030
      3  O          5.1540    0.2030    2.4680 O.2     1  UNL1       -0.2520
      4  O          3.2310    1.4510    2.4820 O.3     1  UNL1       -0.4810
      5  H          3.1070    2.3810    2.8600 H       1  UNL1        0.2960
      6  C          6.5210    1.9140    0.7680 C.3     1  UNL1        0.0470
      7  C          7.1470    1.1310   -0.3290 C.2     1  UNL1       -0.0470
      8  C          6.3910    0.2530   -1.0920 C.2     1  UNL1        0.0040
      9  C          8.4910    1.2210   -0.6400 C.2     1  UNL1        0.0040
     10  C          6.9420   -0.4940   -2.1070 C.2     1  UNL1        0.0000
     11  C          9.0430    0.4720   -1.6570 C.2     1  UNL1        0.0000
     12  C          8.2860   -0.3980   -2.4090 C.2     1  UNL1        0.0000
@<TRIPOS>BOND
     1    12    10    2
     2    12    11    1
     3    10     8    1
     4    11     9    2
     5     8     7    2
     6     9     7    1
     7     7     6    1
     8     1     6    1
     9     1     2    1
    10     2     3    2
    11     2     4    1
    12     4     5    1
