MODEL 1
REMARK VINA RESULT:      -7.3      0.000      0.000
REMARK SMILES O=C(O)CCc1ccccc1
REMARK SMILES IDX 4 1 2 2 1 3 3 4 5 6 6 7 7 8 11 9 8 10 10 11 9 12
REMARK H PARENT 3 5
REMARK Flexibility Score: inf
ROOT
ATOM      1  C   UNL     1       8.414  -0.684  -2.088  1.00  0.00     0.127 C 
ENDROOT
BRANCH   1   2
ATOM      2  C   UNL     1       8.408  -1.927  -2.880  1.00  0.00     0.303 C 
ATOM      3  O   UNL     1       7.304  -2.423  -3.233  1.00  0.00    -0.252 OA
BRANCH   2   4
ATOM      4  O   UNL     1       9.591  -2.579  -3.256  1.00  0.00    -0.481 OA
ATOM      5  H   UNL     1      10.281  -2.062  -3.785  1.00  0.00     0.296 HD
ENDBRANCH   2   4
ENDBRANCH   1   2
BRANCH   1   6
ATOM      6  C   UNL     1       7.067   0.018  -2.112  1.00  0.00     0.047 C 
BRANCH   6   7
ATOM      7  C   UNL     1       6.486   0.102  -0.747  1.00  0.00    -0.047 A 
ATOM      8  C   UNL     1       5.806   1.239  -0.336  1.00  0.00     0.004 A 
ATOM      9  C   UNL     1       6.596  -0.921   0.178  1.00  0.00     0.004 A 
ATOM     10  C   UNL     1       5.266   1.352   0.925  1.00  0.00     0.000 A 
ATOM     11  C   UNL     1       6.054  -0.807   1.440  1.00  0.00     0.000 A 
ATOM     12  C   UNL     1       5.381   0.325   1.840  1.00  0.00     0.000 A 
ENDBRANCH   6   7
ENDBRANCH   1   6
TORSDOF 4
ENDMDL
MODEL 2
REMARK VINA RESULT:      -7.3      0.049      1.421
REMARK SMILES O=C(O)CCc1ccccc1
REMARK SMILES IDX 4 1 2 2 1 3 3 4 5 6 6 7 7 8 11 9 8 10 10 11 9 12
REMARK H PARENT 3 5
REMARK Flexibility Score: inf
ROOT
ATOM      1  C   UNL     1       8.407  -0.668  -2.104  1.00  0.00     0.127 C 
ENDROOT
BRANCH   1   2
ATOM      2  C   UNL     1       8.394  -1.924  -2.875  1.00  0.00     0.303 C 
ATOM      3  O   UNL     1       7.287  -2.411  -3.234  1.00  0.00    -0.252 OA
BRANCH   2   4
ATOM      4  O   UNL     1       9.573  -2.597  -3.227  1.00  0.00    -0.481 OA
ATOM      5  H   UNL     1      10.455  -2.115  -3.122  1.00  0.00     0.296 HD
ENDBRANCH   2   4
ENDBRANCH   1   2
BRANCH   1   6
ATOM      6  C   UNL     1       7.067   0.044  -2.145  1.00  0.00     0.047 C 
BRANCH   6   7
ATOM      7  C   UNL     1       6.488   0.169  -0.782  1.00  0.00    -0.047 A 
ATOM      8  C   UNL     1       6.628  -0.856   0.143  1.00  0.00     0.004 A 
ATOM      9  C   UNL     1       5.782   1.284  -0.368  1.00  0.00     0.004 A 
ATOM     10  C   UNL     1       6.095  -0.775   1.409  1.00  0.00     0.000 A 
ATOM     11  C   UNL     1       5.249   1.363   0.901  1.00  0.00     0.000 A 
ATOM     12  C   UNL     1       5.391   0.342   1.813  1.00  0.00     0.000 A 
ENDBRANCH   6   7
ENDBRANCH   1   6
TORSDOF 4
ENDMDL
MODEL 3
REMARK VINA RESULT:      -7.1      0.624      1.516
REMARK SMILES O=C(O)CCc1ccccc1
REMARK SMILES IDX 4 1 2 2 1 3 3 4 5 6 6 7 7 8 11 9 8 10 10 11 9 12
REMARK H PARENT 3 5
REMARK Flexibility Score: inf
ROOT
ATOM      1  C   UNL     1       8.290  -0.926  -1.904  1.00  0.00     0.127 C 
ENDROOT
BRANCH   1   2
ATOM      2  C   UNL     1       8.380  -2.040  -2.864  1.00  0.00     0.303 C 
ATOM      3  O   UNL     1       9.504  -2.565  -3.089  1.00  0.00    -0.252 OA
BRANCH   2   4
ATOM      4  O   UNL     1       7.256  -2.540  -3.537  1.00  0.00    -0.481 OA
ATOM      5  H   UNL     1       7.313  -3.458  -3.958  1.00  0.00     0.296 HD
ENDBRANCH   2   4
ENDBRANCH   1   2
BRANCH   1   6
ATOM      6  C   UNL     1       7.709  -1.363  -0.571  1.00  0.00     0.047 C 
BRANCH   6   7
ATOM      7  C   UNL     1       6.757  -0.348  -0.046  1.00  0.00    -0.047 A 
ATOM      8  C   UNL     1       6.365   0.726  -0.832  1.00  0.00     0.004 A 
ATOM      9  C   UNL     1       6.228  -0.408   1.229  1.00  0.00     0.004 A 
ATOM     10  C   UNL     1       5.494   1.687  -0.372  1.00  0.00     0.000 A 
ATOM     11  C   UNL     1       5.355   0.556   1.689  1.00  0.00     0.000 A 
ATOM     12  C   UNL     1       4.971   1.619   0.904  1.00  0.00     0.000 A 
ENDBRANCH   6   7
ENDBRANCH   1   6
TORSDOF 4
ENDMDL
MODEL 4
REMARK VINA RESULT:      -6.8      3.323      5.172
REMARK SMILES O=C(O)CCc1ccccc1
REMARK SMILES IDX 4 1 2 2 1 3 3 4 5 6 6 7 7 8 11 9 8 10 10 11 9 12
REMARK H PARENT 3 5
REMARK Flexibility Score: inf
ROOT
ATOM      1  C   UNL     1       5.008   1.791   0.730  1.00  0.00     0.127 C 
ENDROOT
BRANCH   1   2
ATOM      2  C   UNL     1       4.474   1.115   1.925  1.00  0.00     0.303 C 
ATOM      3  O   UNL     1       5.154   0.203   2.468  1.00  0.00    -0.252 OA
BRANCH   2   4
ATOM      4  O   UNL     1       3.231   1.451   2.482  1.00  0.00    -0.481 OA
ATOM      5  H   UNL     1       3.107   2.381   2.860  1.00  0.00     0.296 HD
ENDBRANCH   2   4
ENDBRANCH   1   2
BRANCH   1   6
ATOM      6  C   UNL     1       6.521   1.914   0.768  1.00  0.00     0.047 C 
BRANCH   6   7
ATOM      7  C   UNL     1       7.147   1.131  -0.329  1.00  0.00    -0.047 A 
ATOM      8  C   UNL     1       6.391   0.253  -1.092  1.00  0.00     0.004 A 
ATOM      9  C   UNL     1       8.491   1.221  -0.640  1.00  0.00     0.004 A 
ATOM     10  C   UNL     1       6.942  -0.494  -2.107  1.00  0.00     0.000 A 
ATOM     11  C   UNL     1       9.043   0.472  -1.657  1.00  0.00     0.000 A 
ATOM     12  C   UNL     1       8.286  -0.398  -2.409  1.00  0.00     0.000 A 
ENDBRANCH   6   7
ENDBRANCH   1   6
TORSDOF 4
ENDMDL
MODEL 5
REMARK VINA RESULT:      -6.6      3.818      5.031
REMARK SMILES O=C(O)CCc1ccccc1
REMARK SMILES IDX 4 1 2 2 1 3 3 4 5 6 6 7 7 8 11 9 8 10 10 11 9 12
REMARK H PARENT 3 5
REMARK Flexibility Score: inf
ROOT
ATOM      1  C   UNL     1       5.526   2.980   0.001  1.00  0.00     0.127 C 
ENDROOT
BRANCH   1   2
ATOM      2  C   UNL     1       6.290   3.946   0.810  1.00  0.00     0.303 C 
ATOM      3  O   UNL     1       7.041   4.775   0.227  1.00  0.00    -0.252 OA
BRANCH   2   4
ATOM      4  O   UNL     1       6.212   3.976   2.210  1.00  0.00    -0.481 OA
ATOM      5  H   UNL     1       7.008   3.658   2.746  1.00  0.00     0.296 HD
ENDBRANCH   2   4
ENDBRANCH   1   2
BRANCH   1   6
ATOM      6  C   UNL     1       4.881   1.901   0.853  1.00  0.00     0.047 C 
BRANCH   6   7
ATOM      7  C   UNL     1       5.729   0.682   0.901  1.00  0.00    -0.047 A 
ATOM      8  C   UNL     1       5.792  -0.092   2.051  1.00  0.00     0.004 A 
ATOM      9  C   UNL     1       6.496   0.262  -0.170  1.00  0.00     0.004 A 
ATOM     10  C   UNL     1       6.576  -1.220   2.130  1.00  0.00     0.000 A 
ATOM     11  C   UNL     1       7.281  -0.869  -0.089  1.00  0.00     0.000 A 
ATOM     12  C   UNL     1       7.339  -1.630   1.055  1.00  0.00     0.000 A 
ENDBRANCH   6   7
ENDBRANCH   1   6
TORSDOF 4
ENDMDL
