@<TRIPOS>MOLECULE
/home/cewinharhar/GITHUB/reincatalyze/data/processed/docking_pred/2023-Apr-25-2248_maxeplen10_maxtrainstep1000_exh16_gamma099_lrac3e-4_lrcr1e-3/01f25cbd7413d58f388abe94d9cfceb48e05f66f_ligand_2.pdbqt
 12 12 0 0 0
SMALL
GASTEIGER

@<TRIPOS>ATOM
      1  C          8.3910   -0.6130   -2.1800 C.3     1  UNL1        0.1270
      2  C          8.4250   -1.8930   -2.9090 C.2     1  UNL1        0.3030
      3  O          9.5290   -2.4810   -3.0620 O.2     1  UNL1       -0.2520
      4  O          7.2680   -2.4820   -3.4390 O.3     1  UNL1       -0.4810
      5  H          7.3680   -3.2980   -4.0280 H       1  UNL1        0.2960
      6  C          7.0000   -0.0050   -2.1520 C.3     1  UNL1        0.0470
      7  C          6.4830    0.0790   -0.7610 C.2     1  UNL1       -0.0470
      8  C          6.6180   -0.9920    0.1100 C.2     1  UNL1        0.0040
      9  C          5.8420    1.2010   -0.2680 C.2     1  UNL1        0.0040
     10  C          6.1410   -0.9490    1.4000 C.2     1  UNL1        0.0000
     11  C          5.3640    1.2420    1.0250 C.2     1  UNL1        0.0000
     12  C          5.5010    0.1750    1.8830 C.2     1  UNL1        0.0000
@<TRIPOS>BOND
     1     5     4    1
     2     4     2    1
     3     3     2    2
     4     2     1    1
     5     1     6    1
     6     6     7    1
     7     7     9    2
     8     7     8    1
     9     9    11    1
    10     8    10    2
    11    11    12    2
    12    10    12    1
