@<TRIPOS>MOLECULE
/home/cewinharhar/GITHUB/reincatalyze/data/processed/docking_pred/2023-Apr-25-2248_maxeplen10_maxtrainstep1000_exh16_gamma099_lrac3e-4_lrcr1e-3/01f25cbd7413d58f388abe94d9cfceb48e05f66f_ligand_2.pdbqt
 12 12 0 0 0
SMALL
GASTEIGER

@<TRIPOS>ATOM
      1  C          5.0380    1.7730    0.7520 C.3     1  UNL1        0.1270
      2  C          4.4780    1.1090    1.9420 C.2     1  UNL1        0.3030
      3  O          5.1420    0.1950    2.5030 O.2     1  UNL1       -0.2520
      4  O          3.2290    1.4590    2.4750 O.3     1  UNL1       -0.4810
      5  H          3.0020    2.4390    2.5710 H       1  UNL1        0.2960
      6  C          6.5530    1.8550    0.8000 C.3     1  UNL1        0.0470
      7  C          7.1640    1.0800   -0.3110 C.2     1  UNL1       -0.0470
      8  C          6.4140    0.1580   -1.0270 C.2     1  UNL1        0.0040
      9  C          8.4890    1.2210   -0.6830 C.2     1  UNL1        0.0040
     10  C          6.9530   -0.5820   -2.0540 C.2     1  UNL1        0.0000
     11  C          9.0270    0.4790   -1.7120 C.2     1  UNL1        0.0000
     12  C          8.2760   -0.4340   -2.4170 C.2     1  UNL1        0.0000
@<TRIPOS>BOND
     1    12    10    2
     2    12    11    1
     3    10     8    1
     4    11     9    2
     5     8     7    2
     6     9     7    1
     7     7     6    1
     8     1     6    1
     9     1     2    1
    10     2     4    1
    11     2     3    2
    12     4     5    1
