@<TRIPOS>MOLECULE
/home/cewinharhar/GITHUB/reincatalyze/data/processed/docking_pred/2023-Apr-25-2248_maxeplen10_maxtrainstep1000_exh16_gamma099_lrac3e-4_lrcr1e-3/01f25cbd7413d58f388abe94d9cfceb48e05f66f_ligand_2.pdbqt
 12 12 0 0 0
SMALL
GASTEIGER

@<TRIPOS>ATOM
      1  C          5.6150    2.9210    0.0360 C.3     1  UNL1        0.1270
      2  C          6.3770    3.8560    0.8820 C.2     1  UNL1        0.3030
      3  O          7.0450    4.7740    0.3330 O.2     1  UNL1       -0.2520
      4  O          6.3830    3.7630    2.2810 O.3     1  UNL1       -0.4810
      5  H          7.2620    3.8690    2.7690 H       1  UNL1        0.2960
      6  C          4.9140    1.8490    0.8510 C.3     1  UNL1        0.0470
      7  C          5.7340    0.6120    0.9210 C.2     1  UNL1       -0.0470
      8  C          5.7280   -0.1770    2.0630 C.2     1  UNL1        0.0040
      9  C          6.5400    0.1880   -0.1190 C.2     1  UNL1        0.0040
     10  C          6.4830   -1.3230    2.1630 C.2     1  UNL1        0.0000
     11  C          7.2960   -0.9600   -0.0170 C.2     1  UNL1        0.0000
     12  C          7.2860   -1.7370    1.1190 C.2     1  UNL1        0.0000
@<TRIPOS>BOND
     1     9    11    1
     2     9     7    2
     3    11    12    2
     4     1     6    1
     5     1     2    1
     6     3     2    2
     7     6     7    1
     8     2     4    1
     9     7     8    1
    10    12    10    1
    11     8    10    2
    12     4     5    1
