@<TRIPOS>MOLECULE
/home/cewinharhar/GITHUB/reincatalyze/data/processed/docking_pred/2023-Apr-25-2248_maxeplen10_maxtrainstep1000_exh16_gamma099_lrac3e-4_lrcr1e-3/01f25cbd7413d58f388abe94d9cfceb48e05f66f_ligand_2.pdbqt
 12 12 0 0 0
SMALL
GASTEIGER

@<TRIPOS>ATOM
      1  C          8.2520    0.3410   -2.0110 C.3     1  UNL1        0.1270
      2  C          9.4390    0.4060   -1.1400 C.2     1  UNL1        0.3030
      3  O          9.5150   -0.3700   -0.1490 O.2     1  UNL1       -0.2520
      4  O         10.4900    1.3040   -1.3750 O.3     1  UNL1       -0.4810
      5  H         11.4270    1.0300   -1.1110 H       1  UNL1        0.2960
      6  C          7.1790   -0.5760   -1.4510 C.3     1  UNL1        0.0470
      7  C          6.3790    0.1160   -0.4070 C.2     1  UNL1       -0.0470
      8  C          6.1670   -0.4750    0.8300 C.2     1  UNL1        0.0040
      9  C          5.8020    1.3570   -0.6060 C.2     1  UNL1        0.0040
     10  C          5.4220    0.1350    1.8130 C.2     1  UNL1        0.0000
     11  C          5.0570    1.9670    0.3790 C.2     1  UNL1        0.0000
     12  C          4.8500    1.3740    1.6040 C.2     1  UNL1        0.0000
@<TRIPOS>BOND
     1     1     6    1
     2     1     2    1
     3     6     7    1
     4     4     2    1
     5     4     5    1
     6     2     3    2
     7     9     7    2
     8     9    11    1
     9     7     8    1
    10    11    12    2
    11     8    10    2
    12    12    10    1
