@<TRIPOS>MOLECULE
/home/cewinharhar/GITHUB/reincatalyze/data/processed/docking_pred/2023-Apr-25-2248_maxeplen10_maxtrainstep1000_exh16_gamma099_lrac3e-4_lrcr1e-3/01f25cbd7413d58f388abe94d9cfceb48e05f66f_ligand_2.pdbqt
 12 12 0 0 0
SMALL
GASTEIGER

@<TRIPOS>ATOM
      1  C          8.3910   -0.6270   -2.1590 C.3     1  UNL1        0.1270
      2  C          8.3940   -1.9020   -2.8990 C.2     1  UNL1        0.3030
      3  O          7.2940   -2.4150   -3.2390 O.2     1  UNL1       -0.2520
      4  O          9.5820   -2.5650   -3.2410 O.3     1  UNL1       -0.4810
      5  H          9.9970   -3.1920   -2.5660 H       1  UNL1        0.2960
      6  C          7.0180    0.0210   -2.1390 C.3     1  UNL1        0.0470
      7  C          6.4750    0.0750   -0.7560 C.2     1  UNL1       -0.0470
      8  C          5.8040    1.2020   -0.3030 C.2     1  UNL1        0.0040
      9  C          6.6130   -0.9660    0.1430 C.2     1  UNL1        0.0040
     10  C          5.2990    1.2870    0.9740 C.2     1  UNL1        0.0000
     11  C          6.1060   -0.8790    1.4220 C.2     1  UNL1        0.0000
     12  C          5.4420    0.2420    1.8650 C.2     1  UNL1        0.0000
@<TRIPOS>BOND
     1     4     2    1
     2     4     5    1
     3     3     2    2
     4     2     1    1
     5     1     6    1
     6     6     7    1
     7     7     8    2
     8     7     9    1
     9     8    10    1
    10     9    11    2
    11    10    12    2
    12    11    12    1
