MODEL 1
REMARK VINA RESULT:      -7.3      0.000      0.000
REMARK SMILES O=C(O)CCc1ccccc1
REMARK SMILES IDX 4 1 2 2 1 3 3 4 5 6 6 7 7 8 11 9 8 10 10 11 9 12
REMARK H PARENT 3 5
REMARK Flexibility Score: inf
ROOT
ATOM      1  C   UNL     1       8.391  -0.613  -2.180  1.00  0.00     0.127 C 
ENDROOT
BRANCH   1   2
ATOM      2  C   UNL     1       8.425  -1.893  -2.909  1.00  0.00     0.303 C 
ATOM      3  O   UNL     1       9.529  -2.481  -3.062  1.00  0.00    -0.252 OA
BRANCH   2   4
ATOM      4  O   UNL     1       7.268  -2.482  -3.439  1.00  0.00    -0.481 OA
ATOM      5  H   UNL     1       7.368  -3.298  -4.028  1.00  0.00     0.296 HD
ENDBRANCH   2   4
ENDBRANCH   1   2
BRANCH   1   6
ATOM      6  C   UNL     1       7.000  -0.005  -2.152  1.00  0.00     0.047 C 
BRANCH   6   7
ATOM      7  C   UNL     1       6.483   0.079  -0.761  1.00  0.00    -0.047 A 
ATOM      8  C   UNL     1       6.618  -0.992   0.110  1.00  0.00     0.004 A 
ATOM      9  C   UNL     1       5.842   1.201  -0.268  1.00  0.00     0.004 A 
ATOM     10  C   UNL     1       6.141  -0.949   1.400  1.00  0.00     0.000 A 
ATOM     11  C   UNL     1       5.364   1.242   1.025  1.00  0.00     0.000 A 
ATOM     12  C   UNL     1       5.501   0.175   1.883  1.00  0.00     0.000 A 
ENDBRANCH   6   7
ENDBRANCH   1   6
TORSDOF 4
ENDMDL
MODEL 2
REMARK VINA RESULT:      -7.3      0.104      1.723
REMARK SMILES O=C(O)CCc1ccccc1
REMARK SMILES IDX 4 1 2 2 1 3 3 4 5 6 6 7 7 8 11 9 8 10 10 11 9 12
REMARK H PARENT 3 5
REMARK Flexibility Score: inf
ROOT
ATOM      1  C   UNL     1       8.391  -0.627  -2.159  1.00  0.00     0.127 C 
ENDROOT
BRANCH   1   2
ATOM      2  C   UNL     1       8.394  -1.902  -2.899  1.00  0.00     0.303 C 
ATOM      3  O   UNL     1       7.294  -2.415  -3.239  1.00  0.00    -0.252 OA
BRANCH   2   4
ATOM      4  O   UNL     1       9.582  -2.565  -3.241  1.00  0.00    -0.481 OA
ATOM      5  H   UNL     1       9.997  -3.192  -2.566  1.00  0.00     0.296 HD
ENDBRANCH   2   4
ENDBRANCH   1   2
BRANCH   1   6
ATOM      6  C   UNL     1       7.018   0.021  -2.139  1.00  0.00     0.047 C 
BRANCH   6   7
ATOM      7  C   UNL     1       6.475   0.075  -0.756  1.00  0.00    -0.047 A 
ATOM      8  C   UNL     1       5.804   1.202  -0.303  1.00  0.00     0.004 A 
ATOM      9  C   UNL     1       6.613  -0.966   0.143  1.00  0.00     0.004 A 
ATOM     10  C   UNL     1       5.299   1.287   0.974  1.00  0.00     0.000 A 
ATOM     11  C   UNL     1       6.106  -0.879   1.422  1.00  0.00     0.000 A 
ATOM     12  C   UNL     1       5.442   0.242   1.865  1.00  0.00     0.000 A 
ENDBRANCH   6   7
ENDBRANCH   1   6
TORSDOF 4
ENDMDL
MODEL 3
REMARK VINA RESULT:      -6.8      3.399      5.068
REMARK SMILES O=C(O)CCc1ccccc1
REMARK SMILES IDX 4 1 2 2 1 3 3 4 5 6 6 7 7 8 11 9 8 10 10 11 9 12
REMARK H PARENT 3 5
REMARK Flexibility Score: inf
ROOT
ATOM      1  C   UNL     1       5.038   1.773   0.752  1.00  0.00     0.127 C 
ENDROOT
BRANCH   1   2
ATOM      2  C   UNL     1       4.478   1.109   1.942  1.00  0.00     0.303 C 
ATOM      3  O   UNL     1       5.142   0.195   2.503  1.00  0.00    -0.252 OA
BRANCH   2   4
ATOM      4  O   UNL     1       3.229   1.459   2.475  1.00  0.00    -0.481 OA
ATOM      5  H   UNL     1       3.002   2.439   2.571  1.00  0.00     0.296 HD
ENDBRANCH   2   4
ENDBRANCH   1   2
BRANCH   1   6
ATOM      6  C   UNL     1       6.553   1.855   0.800  1.00  0.00     0.047 C 
BRANCH   6   7
ATOM      7  C   UNL     1       7.164   1.080  -0.311  1.00  0.00    -0.047 A 
ATOM      8  C   UNL     1       6.414   0.158  -1.027  1.00  0.00     0.004 A 
ATOM      9  C   UNL     1       8.489   1.221  -0.683  1.00  0.00     0.004 A 
ATOM     10  C   UNL     1       6.953  -0.582  -2.054  1.00  0.00     0.000 A 
ATOM     11  C   UNL     1       9.027   0.479  -1.712  1.00  0.00     0.000 A 
ATOM     12  C   UNL     1       8.276  -0.434  -2.417  1.00  0.00     0.000 A 
ENDBRANCH   6   7
ENDBRANCH   1   6
TORSDOF 4
ENDMDL
MODEL 4
REMARK VINA RESULT:      -6.6      1.976      2.322
REMARK SMILES O=C(O)CCc1ccccc1
REMARK SMILES IDX 4 1 2 2 1 3 3 4 5 6 6 7 7 8 11 9 8 10 10 11 9 12
REMARK H PARENT 3 5
REMARK Flexibility Score: inf
ROOT
ATOM      1  C   UNL     1       8.252   0.341  -2.011  1.00  0.00     0.127 C 
ENDROOT
BRANCH   1   2
ATOM      2  C   UNL     1       9.439   0.406  -1.140  1.00  0.00     0.303 C 
ATOM      3  O   UNL     1       9.515  -0.370  -0.149  1.00  0.00    -0.252 OA
BRANCH   2   4
ATOM      4  O   UNL     1      10.490   1.304  -1.375  1.00  0.00    -0.481 OA
ATOM      5  H   UNL     1      11.427   1.030  -1.111  1.00  0.00     0.296 HD
ENDBRANCH   2   4
ENDBRANCH   1   2
BRANCH   1   6
ATOM      6  C   UNL     1       7.179  -0.576  -1.451  1.00  0.00     0.047 C 
BRANCH   6   7
ATOM      7  C   UNL     1       6.379   0.116  -0.407  1.00  0.00    -0.047 A 
ATOM      8  C   UNL     1       6.167  -0.475   0.830  1.00  0.00     0.004 A 
ATOM      9  C   UNL     1       5.802   1.357  -0.606  1.00  0.00     0.004 A 
ATOM     10  C   UNL     1       5.422   0.135   1.813  1.00  0.00     0.000 A 
ATOM     11  C   UNL     1       5.057   1.967   0.379  1.00  0.00     0.000 A 
ATOM     12  C   UNL     1       4.850   1.374   1.604  1.00  0.00     0.000 A 
ENDBRANCH   6   7
ENDBRANCH   1   6
TORSDOF 4
ENDMDL
MODEL 5
REMARK VINA RESULT:      -6.6      3.840      4.906
REMARK SMILES O=C(O)CCc1ccccc1
REMARK SMILES IDX 4 1 2 2 1 3 3 4 5 6 6 7 7 8 11 9 8 10 10 11 9 12
REMARK H PARENT 3 5
REMARK Flexibility Score: inf
ROOT
ATOM      1  C   UNL     1       5.615   2.921   0.036  1.00  0.00     0.127 C 
ENDROOT
BRANCH   1   2
ATOM      2  C   UNL     1       6.377   3.856   0.882  1.00  0.00     0.303 C 
ATOM      3  O   UNL     1       7.045   4.774   0.333  1.00  0.00    -0.252 OA
BRANCH   2   4
ATOM      4  O   UNL     1       6.383   3.763   2.281  1.00  0.00    -0.481 OA
ATOM      5  H   UNL     1       7.262   3.869   2.769  1.00  0.00     0.296 HD
ENDBRANCH   2   4
ENDBRANCH   1   2
BRANCH   1   6
ATOM      6  C   UNL     1       4.914   1.849   0.851  1.00  0.00     0.047 C 
BRANCH   6   7
ATOM      7  C   UNL     1       5.734   0.612   0.921  1.00  0.00    -0.047 A 
ATOM      8  C   UNL     1       5.728  -0.177   2.063  1.00  0.00     0.004 A 
ATOM      9  C   UNL     1       6.540   0.188  -0.119  1.00  0.00     0.004 A 
ATOM     10  C   UNL     1       6.483  -1.323   2.163  1.00  0.00     0.000 A 
ATOM     11  C   UNL     1       7.296  -0.960  -0.017  1.00  0.00     0.000 A 
ATOM     12  C   UNL     1       7.286  -1.737   1.119  1.00  0.00     0.000 A 
ENDBRANCH   6   7
ENDBRANCH   1   6
TORSDOF 4
ENDMDL
