@<TRIPOS>MOLECULE
/home/cewinharhar/GITHUB/reincatalyze/data/processed/docking_pred/2023-Apr-25-2248_maxeplen10_maxtrainstep1000_exh16_gamma099_lrac3e-4_lrcr1e-3/02381cbfeedb5f98de7c9f38a4017f955763d16c_ligand_2.pdbqt
 12 12 0 0 0
SMALL
GASTEIGER

@<TRIPOS>ATOM
      1  C          8.3730    0.2770   -2.0380 C.3     1  UNL1        0.1270
      2  C          9.4940    0.3740   -1.0850 C.2     1  UNL1        0.3030
      3  O          9.5150   -0.3940   -0.0860 O.2     1  UNL1       -0.2520
      4  O         10.5400    1.2920   -1.2530 O.3     1  UNL1       -0.4810
      5  H         11.4880    0.9420   -1.2900 H       1  UNL1        0.2960
      6  C          7.2370   -0.5750   -1.5020 C.3     1  UNL1        0.0470
      7  C          6.4080    0.1900   -0.5340 C.2     1  UNL1       -0.0470
      8  C          5.8470    1.4080   -0.8900 C.2     1  UNL1        0.0040
      9  C          6.1610   -0.2520    0.7530 C.2     1  UNL1        0.0040
     10  C          5.0850    2.1450   -0.0130 C.2     1  UNL1        0.0000
     11  C          5.3970    0.4870    1.6300 C.2     1  UNL1        0.0000
     12  C          4.8450    1.6960    1.2690 C.2     1  UNL1        0.0000
@<TRIPOS>BOND
     1     1     6    1
     2     1     2    1
     3     6     7    1
     4     5     4    1
     5     4     2    1
     6     2     3    2
     7     8     7    2
     8     8    10    1
     9     7     9    1
    10    10    12    2
    11     9    11    2
    12    12    11    1
