@<TRIPOS>MOLECULE
/home/cewinharhar/GITHUB/reincatalyze/data/processed/docking_pred/2023-Apr-25-2248_maxeplen10_maxtrainstep1000_exh16_gamma099_lrac3e-4_lrcr1e-3/02381cbfeedb5f98de7c9f38a4017f955763d16c_ligand_2.pdbqt
 12 12 0 0 0
SMALL
GASTEIGER

@<TRIPOS>ATOM
      1  C          8.4190   -0.7470   -2.0180 C.3     1  UNL1        0.1270
      2  C          8.4240   -1.9510   -2.8680 C.2     1  UNL1        0.3030
      3  O          9.5130   -2.5510   -3.0730 O.2     1  UNL1       -0.2520
      4  O          7.2550   -2.4540   -3.4570 O.3     1  UNL1       -0.4810
      5  H          6.6670   -3.0710   -2.9140 H       1  UNL1        0.2960
      6  C          7.0900   -0.0150   -2.0670 C.3     1  UNL1        0.0470
      7  C          6.4960    0.1020   -0.7100 C.2     1  UNL1       -0.0470
      8  C          6.5950   -0.9420    0.1990 C.2     1  UNL1        0.0040
      9  C          5.8150    1.2290   -0.2850 C.2     1  UNL1        0.0040
     10  C          6.0470   -0.8690    1.4590 C.2     1  UNL1        0.0000
     11  C          5.2670    1.3000    0.9770 C.2     1  UNL1        0.0000
     12  C          5.3680    0.2600    1.8720 C.2     1  UNL1        0.0000
@<TRIPOS>BOND
     1     4     5    1
     2     4     2    1
     3     3     2    2
     4     2     1    1
     5     6     1    1
     6     6     7    1
     7     7     9    2
     8     7     8    1
     9     9    11    1
    10     8    10    2
    11    11    12    2
    12    10    12    1
