@<TRIPOS>MOLECULE
/home/cewinharhar/GITHUB/reincatalyze/data/processed/docking_pred/2023-Apr-25-2248_maxeplen10_maxtrainstep1000_exh16_gamma099_lrac3e-4_lrcr1e-3/02381cbfeedb5f98de7c9f38a4017f955763d16c_ligand_2.pdbqt
 12 12 0 0 0
SMALL
GASTEIGER

@<TRIPOS>ATOM
      1  C          8.4320   -0.6350   -2.1460 C.3     1  UNL1        0.1270
      2  C          8.4510   -1.9030   -2.8970 C.2     1  UNL1        0.3030
      3  O          9.5530   -2.4900   -3.0790 O.2     1  UNL1       -0.2520
      4  O          7.2850   -2.4820   -3.4170 O.3     1  UNL1       -0.4810
      5  H          6.7210   -1.9410   -4.0590 H       1  UNL1        0.2960
      6  C          7.0570    0.0090   -2.1440 C.3     1  UNL1        0.0470
      7  C          6.5020    0.0740   -0.7660 C.2     1  UNL1       -0.0470
      8  C          5.8460    1.2120   -0.3200 C.2     1  UNL1        0.0040
      9  C          6.6120   -0.9700    0.1340 C.2     1  UNL1        0.0040
     10  C          5.3310    1.3070    0.9520 C.2     1  UNL1        0.0000
     11  C          6.0950   -0.8730    1.4080 C.2     1  UNL1        0.0000
     12  C          5.4470    0.2600    1.8440 C.2     1  UNL1        0.0000
@<TRIPOS>BOND
     1     5     4    1
     2     4     2    1
     3     3     2    2
     4     2     1    1
     5     1     6    1
     6     6     7    1
     7     7     8    2
     8     7     9    1
     9     8    10    1
    10     9    11    2
    11    10    12    2
    12    11    12    1
