@<TRIPOS>MOLECULE
/home/cewinharhar/GITHUB/reincatalyze/data/processed/docking_pred/2023-Apr-25-2248_maxeplen10_maxtrainstep1000_exh16_gamma099_lrac3e-4_lrcr1e-3/02381cbfeedb5f98de7c9f38a4017f955763d16c_ligand_2.pdbqt
 12 12 0 0 0
SMALL
GASTEIGER

@<TRIPOS>ATOM
      1  C          5.0250    1.7810    0.7110 C.3     1  UNL1        0.1270
      2  C          4.4960    1.1180    1.9160 C.2     1  UNL1        0.3030
      3  O          5.1860    0.2220    2.4740 O.2     1  UNL1       -0.2520
      4  O          3.2500    1.4500    2.4660 O.3     1  UNL1       -0.4810
      5  H          3.1130    1.3310    3.4610 H       1  UNL1        0.2960
      6  C          6.5400    1.8840    0.7310 C.3     1  UNL1        0.0470
      7  C          7.1440    1.0590   -0.3470 C.2     1  UNL1       -0.0470
      8  C          8.4850    1.1970   -0.6770 C.2     1  UNL1        0.0040
      9  C          6.4200    0.1330   -1.0760 C.2     1  UNL1        0.0040
     10  C          9.0720    0.4550   -1.6760 C.2     1  UNL1        0.0000
     11  C          7.0090   -0.6090   -2.0770 C.2     1  UNL1        0.0000
     12  C          8.3400   -0.4660   -2.3990 C.2     1  UNL1        0.0000
@<TRIPOS>BOND
     1    12    11    2
     2    12    10    1
     3    11     9    1
     4    10     8    2
     5     9     7    2
     6     8     7    1
     7     7     6    1
     8     1     6    1
     9     1     2    1
    10     2     4    1
    11     2     3    2
    12     4     5    1
