@<TRIPOS>MOLECULE
/home/cewinharhar/GITHUB/reincatalyze/data/processed/docking_pred/2023-Apr-25-2248_maxeplen10_maxtrainstep1000_exh16_gamma099_lrac3e-4_lrcr1e-3/02381cbfeedb5f98de7c9f38a4017f955763d16c_ligand_2.pdbqt
 12 12 0 0 0
SMALL
GASTEIGER

@<TRIPOS>ATOM
      1  C          8.3380   -0.8860   -1.8650 C.3     1  UNL1        0.1270
      2  C          8.3530   -1.9860   -2.8460 C.2     1  UNL1        0.3030
      3  O          7.2590   -2.4040   -3.3140 O.2     1  UNL1       -0.2520
      4  O          9.5450   -2.5850   -3.2800 O.3     1  UNL1       -0.4810
      5  H         10.3140   -2.6590   -2.6270 H       1  UNL1        0.2960
      6  C          7.7340   -1.3090   -0.5380 C.3     1  UNL1        0.0470
      7  C          6.7750   -0.2890   -0.0400 C.2     1  UNL1       -0.0470
      8  C          6.3600    0.7520   -0.8580 C.2     1  UNL1        0.0040
      9  C          6.2590   -0.3100    1.2430 C.2     1  UNL1        0.0040
     10  C          5.4810    1.7170   -0.4240 C.2     1  UNL1        0.0000
     11  C          5.3790    0.6580    1.6770 C.2     1  UNL1        0.0000
     12  C          4.9730    1.6880    0.8590 C.2     1  UNL1        0.0000
@<TRIPOS>BOND
     1     3     2    2
     2     4     2    1
     3     4     5    1
     4     2     1    1
     5     1     6    1
     6     8    10    1
     7     8     7    2
     8     6     7    1
     9    10    12    2
    10     7     9    1
    11    12    11    1
    12     9    11    2
