@<TRIPOS>MOLECULE
/home/cewinharhar/GITHUB/reincatalyze/data/processed/docking_pred/2023-Apr-25-2248_maxeplen10_maxtrainstep1000_exh16_gamma099_lrac3e-4_lrcr1e-3/0290c85fc3d54ce9de2b0a348623cd2c15c42a14_ligand_2.pdbqt
 12 12 0 0 0
SMALL
GASTEIGER

@<TRIPOS>ATOM
      1  C          8.2420   -0.9280   -1.8820 C.3     1  UNL1        0.1270
      2  C          8.3630   -2.0270   -2.8560 C.2     1  UNL1        0.3030
      3  O          9.5000   -2.5260   -3.0780 O.2     1  UNL1       -0.2520
      4  O          7.2550   -2.5400   -3.5450 O.3     1  UNL1       -0.4810
      5  H          7.2800   -2.5570   -4.5560 H       1  UNL1        0.2960
      6  C          7.5910   -1.3780   -0.5860 C.3     1  UNL1        0.0470
      7  C          6.6780   -0.3310   -0.0570 C.2     1  UNL1       -0.0470
      8  C          6.3110    0.7510   -0.8440 C.2     1  UNL1        0.0040
      9  C          6.1600   -0.3680    1.2250 C.2     1  UNL1        0.0040
     10  C          5.4770    1.7420   -0.3800 C.2     1  UNL1        0.0000
     11  C          5.3250    0.6250    1.6880 C.2     1  UNL1        0.0000
     12  C          4.9660    1.6970    0.9020 C.2     1  UNL1        0.0000
@<TRIPOS>BOND
     1     5     4    1
     2     4     2    1
     3     3     2    2
     4     2     1    1
     5     1     6    1
     6     8    10    1
     7     8     7    2
     8     6     7    1
     9    10    12    2
    10     7     9    1
    11    12    11    1
    12     9    11    2
