@<TRIPOS>MOLECULE
/home/cewinharhar/GITHUB/reincatalyze/data/processed/docking_pred/2023-Apr-25-2248_maxeplen10_maxtrainstep1000_exh16_gamma099_lrac3e-4_lrcr1e-3/0290c85fc3d54ce9de2b0a348623cd2c15c42a14_ligand_2.pdbqt
 12 12 0 0 0
SMALL
GASTEIGER

@<TRIPOS>ATOM
      1  C          5.0200    1.7870    0.7600 C.3     1  UNL1        0.1270
      2  C          4.4660    1.1050    1.9430 C.2     1  UNL1        0.3030
      3  O          5.1310    0.1810    2.4840 O.2     1  UNL1       -0.2520
      4  O          3.2210    1.4500    2.4900 O.3     1  UNL1       -0.4810
      5  H          2.4550    0.7970    2.3970 H       1  UNL1        0.2960
      6  C          6.5370    1.8530    0.7940 C.3     1  UNL1        0.0470
      7  C          7.1290    1.0550   -0.3100 C.2     1  UNL1       -0.0470
      8  C          8.4590    1.2230   -0.6700 C.2     1  UNL1        0.0040
      9  C          6.4050    0.1270   -1.0350 C.2     1  UNL1        0.0040
     10  C          9.0340    0.5070   -1.6950 C.2     1  UNL1        0.0000
     11  C          6.9830   -0.5900   -2.0620 C.2     1  UNL1        0.0000
     12  C          8.3020   -0.4170   -2.4130 C.2     1  UNL1        0.0000
@<TRIPOS>BOND
     1    12    11    2
     2    12    10    1
     3    11     9    1
     4    10     8    2
     5     9     7    2
     6     8     7    1
     7     7     6    1
     8     1     6    1
     9     1     2    1
    10     2     3    2
    11     2     4    1
    12     5     4    1
