MODEL 1
REMARK VINA RESULT:      -7.3      0.000      0.000
REMARK SMILES O=C(O)CCc1ccccc1
REMARK SMILES IDX 4 1 2 2 1 3 3 4 5 6 6 7 7 8 11 9 8 10 10 11 9 12
REMARK H PARENT 3 5
REMARK Flexibility Score: inf
ROOT
ATOM      1  C   UNL     1       8.387  -0.628  -2.152  1.00  0.00     0.127 C 
ENDROOT
BRANCH   1   2
ATOM      2  C   UNL     1       8.419  -1.895  -2.904  1.00  0.00     0.303 C 
ATOM      3  O   UNL     1       9.521  -2.489  -3.057  1.00  0.00    -0.252 OA
BRANCH   2   4
ATOM      4  O   UNL     1       7.263  -2.466  -3.457  1.00  0.00    -0.481 OA
ATOM      5  H   UNL     1       6.385  -1.975  -3.355  1.00  0.00     0.296 HD
ENDBRANCH   2   4
ENDBRANCH   1   2
BRANCH   1   6
ATOM      6  C   UNL     1       7.003  -0.004  -2.138  1.00  0.00     0.047 C 
BRANCH   6   7
ATOM      7  C   UNL     1       6.467   0.071  -0.754  1.00  0.00    -0.047 A 
ATOM      8  C   UNL     1       5.827   1.218  -0.304  1.00  0.00     0.004 A 
ATOM      9  C   UNL     1       6.580  -0.969   0.150  1.00  0.00     0.004 A 
ATOM     10  C   UNL     1       5.329   1.322   0.974  1.00  0.00     0.000 A 
ATOM     11  C   UNL     1       6.080  -0.862   1.430  1.00  0.00     0.000 A 
ATOM     12  C   UNL     1       5.448   0.279   1.870  1.00  0.00     0.000 A 
ENDBRANCH   6   7
ENDBRANCH   1   6
TORSDOF 4
ENDMDL
MODEL 2
REMARK VINA RESULT:      -7.2      0.097      1.423
REMARK SMILES O=C(O)CCc1ccccc1
REMARK SMILES IDX 4 1 2 2 1 3 3 4 5 6 6 7 7 8 11 9 8 10 10 11 9 12
REMARK H PARENT 3 5
REMARK Flexibility Score: inf
ROOT
ATOM      1  C   UNL     1       8.399  -0.597  -2.246  1.00  0.00     0.127 C 
ENDROOT
BRANCH   1   2
ATOM      2  C   UNL     1       8.450  -1.909  -2.915  1.00  0.00     0.303 C 
ATOM      3  O   UNL     1       9.557  -2.505  -3.010  1.00  0.00    -0.252 OA
BRANCH   2   4
ATOM      4  O   UNL     1       7.307  -2.522  -3.448  1.00  0.00    -0.481 OA
ATOM      5  H   UNL     1       6.400  -2.150  -3.202  1.00  0.00     0.296 HD
ENDBRANCH   2   4
ENDBRANCH   1   2
BRANCH   1   6
ATOM      6  C   UNL     1       6.991  -0.031  -2.201  1.00  0.00     0.047 C 
BRANCH   6   7
ATOM      7  C   UNL     1       6.504   0.076  -0.801  1.00  0.00    -0.047 A 
ATOM      8  C   UNL     1       6.613  -0.999   0.070  1.00  0.00     0.004 A 
ATOM      9  C   UNL     1       5.919   1.223  -0.297  1.00  0.00     0.004 A 
ATOM     10  C   UNL     1       6.162  -0.935   1.369  1.00  0.00     0.000 A 
ATOM     11  C   UNL     1       5.468   1.286   1.004  1.00  0.00     0.000 A 
ATOM     12  C   UNL     1       5.578   0.215   1.861  1.00  0.00     0.000 A 
ENDBRANCH   6   7
ENDBRANCH   1   6
TORSDOF 4
ENDMDL
MODEL 3
REMARK VINA RESULT:      -7.2      0.659      1.208
REMARK SMILES O=C(O)CCc1ccccc1
REMARK SMILES IDX 4 1 2 2 1 3 3 4 5 6 6 7 7 8 11 9 8 10 10 11 9 12
REMARK H PARENT 3 5
REMARK Flexibility Score: inf
ROOT
ATOM      1  C   UNL     1       8.242  -0.928  -1.882  1.00  0.00     0.127 C 
ENDROOT
BRANCH   1   2
ATOM      2  C   UNL     1       8.363  -2.027  -2.856  1.00  0.00     0.303 C 
ATOM      3  O   UNL     1       9.500  -2.526  -3.078  1.00  0.00    -0.252 OA
BRANCH   2   4
ATOM      4  O   UNL     1       7.255  -2.540  -3.545  1.00  0.00    -0.481 OA
ATOM      5  H   UNL     1       7.280  -2.557  -4.556  1.00  0.00     0.296 HD
ENDBRANCH   2   4
ENDBRANCH   1   2
BRANCH   1   6
ATOM      6  C   UNL     1       7.591  -1.378  -0.586  1.00  0.00     0.047 C 
BRANCH   6   7
ATOM      7  C   UNL     1       6.678  -0.331  -0.057  1.00  0.00    -0.047 A 
ATOM      8  C   UNL     1       6.311   0.751  -0.844  1.00  0.00     0.004 A 
ATOM      9  C   UNL     1       6.160  -0.368   1.225  1.00  0.00     0.004 A 
ATOM     10  C   UNL     1       5.477   1.742  -0.380  1.00  0.00     0.000 A 
ATOM     11  C   UNL     1       5.325   0.625   1.688  1.00  0.00     0.000 A 
ATOM     12  C   UNL     1       4.966   1.697   0.902  1.00  0.00     0.000 A 
ENDBRANCH   6   7
ENDBRANCH   1   6
TORSDOF 4
ENDMDL
MODEL 4
REMARK VINA RESULT:      -6.8      3.398      5.073
REMARK SMILES O=C(O)CCc1ccccc1
REMARK SMILES IDX 4 1 2 2 1 3 3 4 5 6 6 7 7 8 11 9 8 10 10 11 9 12
REMARK H PARENT 3 5
REMARK Flexibility Score: inf
ROOT
ATOM      1  C   UNL     1       5.020   1.787   0.760  1.00  0.00     0.127 C 
ENDROOT
BRANCH   1   2
ATOM      2  C   UNL     1       4.466   1.105   1.943  1.00  0.00     0.303 C 
ATOM      3  O   UNL     1       5.131   0.181   2.484  1.00  0.00    -0.252 OA
BRANCH   2   4
ATOM      4  O   UNL     1       3.221   1.450   2.490  1.00  0.00    -0.481 OA
ATOM      5  H   UNL     1       2.455   0.797   2.397  1.00  0.00     0.296 HD
ENDBRANCH   2   4
ENDBRANCH   1   2
BRANCH   1   6
ATOM      6  C   UNL     1       6.537   1.853   0.794  1.00  0.00     0.047 C 
BRANCH   6   7
ATOM      7  C   UNL     1       7.129   1.055  -0.310  1.00  0.00    -0.047 A 
ATOM      8  C   UNL     1       8.459   1.223  -0.670  1.00  0.00     0.004 A 
ATOM      9  C   UNL     1       6.405   0.127  -1.035  1.00  0.00     0.004 A 
ATOM     10  C   UNL     1       9.034   0.507  -1.695  1.00  0.00     0.000 A 
ATOM     11  C   UNL     1       6.983  -0.590  -2.062  1.00  0.00     0.000 A 
ATOM     12  C   UNL     1       8.302  -0.417  -2.413  1.00  0.00     0.000 A 
ENDBRANCH   6   7
ENDBRANCH   1   6
TORSDOF 4
ENDMDL
MODEL 5
REMARK VINA RESULT:      -6.6      1.975      2.955
REMARK SMILES O=C(O)CCc1ccccc1
REMARK SMILES IDX 4 1 2 2 1 3 3 4 5 6 6 7 7 8 11 9 8 10 10 11 9 12
REMARK H PARENT 3 5
REMARK Flexibility Score: inf
ROOT
ATOM      1  C   UNL     1       8.324  -1.730   1.126  1.00  0.00     0.127 C 
ENDROOT
BRANCH   1   2
ATOM      2  C   UNL     1       8.722  -2.984   0.461  1.00  0.00     0.303 C 
ATOM      3  O   UNL     1       9.465  -3.795   1.078  1.00  0.00    -0.252 OA
BRANCH   2   4
ATOM      4  O   UNL     1       8.300  -3.309  -0.836  1.00  0.00    -0.481 OA
ATOM      5  H   UNL     1       7.983  -2.564  -1.442  1.00  0.00     0.296 HD
ENDBRANCH   2   4
ENDBRANCH   1   2
BRANCH   1   6
ATOM      6  C   UNL     1       6.832  -1.673   1.398  1.00  0.00     0.047 C 
BRANCH   6   7
ATOM      7  C   UNL     1       6.248  -0.401   0.899  1.00  0.00    -0.047 A 
ATOM      8  C   UNL     1       6.484   0.024  -0.401  1.00  0.00     0.004 A 
ATOM      9  C   UNL     1       5.459   0.420   1.684  1.00  0.00     0.004 A 
ATOM     10  C   UNL     1       5.967   1.202  -0.890  1.00  0.00     0.000 A 
ATOM     11  C   UNL     1       4.941   1.599   1.192  1.00  0.00     0.000 A 
ATOM     12  C   UNL     1       5.182   2.015  -0.097  1.00  0.00     0.000 A 
ENDBRANCH   6   7
ENDBRANCH   1   6
TORSDOF 4
ENDMDL
