@<TRIPOS>MOLECULE
/home/cewinharhar/GITHUB/reincatalyze/data/processed/docking_pred/2023-Apr-25-2248_maxeplen10_maxtrainstep1000_exh16_gamma099_lrac3e-4_lrcr1e-3/0290c85fc3d54ce9de2b0a348623cd2c15c42a14_ligand_2.pdbqt
 12 12 0 0 0
SMALL
GASTEIGER

@<TRIPOS>ATOM
      1  C          8.3870   -0.6280   -2.1520 C.3     1  UNL1        0.1270
      2  C          8.4190   -1.8950   -2.9040 C.2     1  UNL1        0.3030
      3  O          9.5210   -2.4890   -3.0570 O.2     1  UNL1       -0.2520
      4  O          7.2630   -2.4660   -3.4570 O.3     1  UNL1       -0.4810
      5  H          6.3850   -1.9750   -3.3550 H       1  UNL1        0.2960
      6  C          7.0030   -0.0040   -2.1380 C.3     1  UNL1        0.0470
      7  C          6.4670    0.0710   -0.7540 C.2     1  UNL1       -0.0470
      8  C          5.8270    1.2180   -0.3040 C.2     1  UNL1        0.0040
      9  C          6.5800   -0.9690    0.1500 C.2     1  UNL1        0.0040
     10  C          5.3290    1.3220    0.9740 C.2     1  UNL1        0.0000
     11  C          6.0800   -0.8620    1.4300 C.2     1  UNL1        0.0000
     12  C          5.4480    0.2790    1.8700 C.2     1  UNL1        0.0000
@<TRIPOS>BOND
     1     4     5    1
     2     4     2    1
     3     3     2    2
     4     2     1    1
     5     1     6    1
     6     6     7    1
     7     7     8    2
     8     7     9    1
     9     8    10    1
    10     9    11    2
    11    10    12    2
    12    11    12    1
