@<TRIPOS>MOLECULE
/home/cewinharhar/GITHUB/reincatalyze/data/processed/docking_pred/2023-Apr-25-2248_maxeplen10_maxtrainstep1000_exh16_gamma099_lrac3e-4_lrcr1e-3/0290c85fc3d54ce9de2b0a348623cd2c15c42a14_ligand_2.pdbqt
 12 12 0 0 0
SMALL
GASTEIGER

@<TRIPOS>ATOM
      1  C          8.3240   -1.7300    1.1260 C.3     1  UNL1        0.1270
      2  C          8.7220   -2.9840    0.4610 C.2     1  UNL1        0.3030
      3  O          9.4650   -3.7950    1.0780 O.2     1  UNL1       -0.2520
      4  O          8.3000   -3.3090   -0.8360 O.3     1  UNL1       -0.4810
      5  H          7.9830   -2.5640   -1.4420 H       1  UNL1        0.2960
      6  C          6.8320   -1.6730    1.3980 C.3     1  UNL1        0.0470
      7  C          6.2480   -0.4010    0.8990 C.2     1  UNL1       -0.0470
      8  C          6.4840    0.0240   -0.4010 C.2     1  UNL1        0.0040
      9  C          5.4590    0.4200    1.6840 C.2     1  UNL1        0.0040
     10  C          5.9670    1.2020   -0.8900 C.2     1  UNL1        0.0000
     11  C          4.9410    1.5990    1.1920 C.2     1  UNL1        0.0000
     12  C          5.1820    2.0150   -0.0970 C.2     1  UNL1        0.0000
@<TRIPOS>BOND
     1     5     4    1
     2    10     8    1
     3    10    12    2
     4     4     2    1
     5     8     7    2
     6    12    11    1
     7     2     3    2
     8     2     1    1
     9     7     6    1
    10     7     9    1
    11     1     6    1
    12    11     9    2
