@<TRIPOS>MOLECULE
/home/cewinharhar/GITHUB/reincatalyze/data/processed/docking_pred/2023-Apr-25-2248_maxeplen10_maxtrainstep1000_exh16_gamma099_lrac3e-4_lrcr1e-3/0290c85fc3d54ce9de2b0a348623cd2c15c42a14_ligand_2.pdbqt
 12 12 0 0 0
SMALL
GASTEIGER

@<TRIPOS>ATOM
      1  C          8.3990   -0.5970   -2.2460 C.3     1  UNL1        0.1270
      2  C          8.4500   -1.9090   -2.9150 C.2     1  UNL1        0.3030
      3  O          9.5570   -2.5050   -3.0100 O.2     1  UNL1       -0.2520
      4  O          7.3070   -2.5220   -3.4480 O.3     1  UNL1       -0.4810
      5  H          6.4000   -2.1500   -3.2020 H       1  UNL1        0.2960
      6  C          6.9910   -0.0310   -2.2010 C.3     1  UNL1        0.0470
      7  C          6.5040    0.0760   -0.8010 C.2     1  UNL1       -0.0470
      8  C          6.6130   -0.9990    0.0700 C.2     1  UNL1        0.0040
      9  C          5.9190    1.2230   -0.2970 C.2     1  UNL1        0.0040
     10  C          6.1620   -0.9350    1.3690 C.2     1  UNL1        0.0000
     11  C          5.4680    1.2860    1.0040 C.2     1  UNL1        0.0000
     12  C          5.5780    0.2150    1.8610 C.2     1  UNL1        0.0000
@<TRIPOS>BOND
     1     4     5    1
     2     4     2    1
     3     3     2    2
     4     2     1    1
     5     1     6    1
     6     6     7    1
     7     7     9    2
     8     7     8    1
     9     9    11    1
    10     8    10    2
    11    11    12    2
    12    10    12    1
