MODEL 1
REMARK VINA RESULT:      -7.3      0.000      0.000
REMARK SMILES O=C(O)CCc1ccccc1
REMARK SMILES IDX 4 1 2 2 1 3 3 4 5 6 6 7 7 8 11 9 8 10 10 11 9 12
REMARK H PARENT 3 5
REMARK Flexibility Score: inf
ROOT
ATOM      1  C   UNL     1       8.408  -0.655  -2.106  1.00  0.00     0.127 C 
ENDROOT
BRANCH   1   2
ATOM      2  C   UNL     1       8.443  -1.903  -2.888  1.00  0.00     0.303 C 
ATOM      3  O   UNL     1       9.551  -2.472  -3.085  1.00  0.00    -0.252 OA
BRANCH   2   4
ATOM      4  O   UNL     1       7.283  -2.484  -3.421  1.00  0.00    -0.481 OA
ATOM      5  H   UNL     1       6.449  -1.917  -3.495  1.00  0.00     0.296 HD
ENDBRANCH   2   4
ENDBRANCH   1   2
BRANCH   1   6
ATOM      6  C   UNL     1       7.034  -0.010  -2.114  1.00  0.00     0.047 C 
BRANCH   6   7
ATOM      7  C   UNL     1       6.475   0.072  -0.739  1.00  0.00    -0.047 A 
ATOM      8  C   UNL     1       5.803   1.209  -0.315  1.00  0.00     0.004 A 
ATOM      9  C   UNL     1       6.599  -0.953   0.181  1.00  0.00     0.004 A 
ATOM     10  C   UNL     1       5.283   1.319   0.954  1.00  0.00     0.000 A 
ATOM     11  C   UNL     1       6.078  -0.841   1.452  1.00  0.00     0.000 A 
ATOM     12  C   UNL     1       5.413   0.291   1.866  1.00  0.00     0.000 A 
ENDBRANCH   6   7
ENDBRANCH   1   6
TORSDOF 4
ENDMDL
MODEL 2
REMARK VINA RESULT:      -7.2      0.140      1.725
REMARK SMILES O=C(O)CCc1ccccc1
REMARK SMILES IDX 4 1 2 2 1 3 3 4 5 6 6 7 7 8 11 9 8 10 10 11 9 12
REMARK H PARENT 3 5
REMARK Flexibility Score: inf
ROOT
ATOM      1  C   UNL     1       8.427  -0.770  -2.001  1.00  0.00     0.127 C 
ENDROOT
BRANCH   1   2
ATOM      2  C   UNL     1       8.408  -1.966  -2.863  1.00  0.00     0.303 C 
ATOM      3  O   UNL     1       7.298  -2.421  -3.253  1.00  0.00    -0.252 OA
BRANCH   2   4
ATOM      4  O   UNL     1       9.583  -2.616  -3.266  1.00  0.00    -0.481 OA
ATOM      5  H   UNL     1      10.404  -2.537  -2.682  1.00  0.00     0.296 HD
ENDBRANCH   2   4
ENDBRANCH   1   2
BRANCH   1   6
ATOM      6  C   UNL     1       7.133   0.019  -2.085  1.00  0.00     0.047 C 
BRANCH   6   7
ATOM      7  C   UNL     1       6.514   0.172  -0.742  1.00  0.00    -0.047 A 
ATOM      8  C   UNL     1       6.627  -0.833   0.207  1.00  0.00     0.004 A 
ATOM      9  C   UNL     1       5.797   1.295  -0.372  1.00  0.00     0.004 A 
ATOM     10  C   UNL     1       6.057  -0.726   1.455  1.00  0.00     0.000 A 
ATOM     11  C   UNL     1       5.227   1.401   0.878  1.00  0.00     0.000 A 
ATOM     12  C   UNL     1       5.342   0.399   1.814  1.00  0.00     0.000 A 
ENDBRANCH   6   7
ENDBRANCH   1   6
TORSDOF 4
ENDMDL
MODEL 3
REMARK VINA RESULT:      -6.8      3.387      5.077
REMARK SMILES O=C(O)CCc1ccccc1
REMARK SMILES IDX 4 1 2 2 1 3 3 4 5 6 6 7 7 8 11 9 8 10 10 11 9 12
REMARK H PARENT 3 5
REMARK Flexibility Score: inf
ROOT
ATOM      1  C   UNL     1       5.016   1.796   0.723  1.00  0.00     0.127 C 
ENDROOT
BRANCH   1   2
ATOM      2  C   UNL     1       4.478   1.122   1.918  1.00  0.00     0.303 C 
ATOM      3  O   UNL     1       5.158   0.212   2.466  1.00  0.00    -0.252 OA
BRANCH   2   4
ATOM      4  O   UNL     1       3.234   1.460   2.471  1.00  0.00    -0.481 OA
ATOM      5  H   UNL     1       2.398   1.254   1.941  1.00  0.00     0.296 HD
ENDBRANCH   2   4
ENDBRANCH   1   2
BRANCH   1   6
ATOM      6  C   UNL     1       6.531   1.884   0.747  1.00  0.00     0.047 C 
BRANCH   6   7
ATOM      7  C   UNL     1       7.130   1.063  -0.338  1.00  0.00    -0.047 A 
ATOM      8  C   UNL     1       8.472   1.191  -0.664  1.00  0.00     0.004 A 
ATOM      9  C   UNL     1       6.398   0.151  -1.077  1.00  0.00     0.004 A 
ATOM     10  C   UNL     1       9.053   0.453  -1.670  1.00  0.00     0.000 A 
ATOM     11  C   UNL     1       6.982  -0.588  -2.084  1.00  0.00     0.000 A 
ATOM     12  C   UNL     1       8.314  -0.454  -2.402  1.00  0.00     0.000 A 
ENDBRANCH   6   7
ENDBRANCH   1   6
TORSDOF 4
ENDMDL
MODEL 4
REMARK VINA RESULT:      -6.6      1.940      2.667
REMARK SMILES O=C(O)CCc1ccccc1
REMARK SMILES IDX 4 1 2 2 1 3 3 4 5 6 6 7 7 8 11 9 8 10 10 11 9 12
REMARK H PARENT 3 5
REMARK Flexibility Score: inf
ROOT
ATOM      1  C   UNL     1       8.267   0.156  -2.176  1.00  0.00     0.127 C 
ENDROOT
BRANCH   1   2
ATOM      2  C   UNL     1       9.385   0.345  -1.234  1.00  0.00     0.303 C 
ATOM      3  O   UNL     1       9.463  -0.400  -0.219  1.00  0.00    -0.252 OA
BRANCH   2   4
ATOM      4  O   UNL     1      10.368   1.326  -1.428  1.00  0.00    -0.481 OA
ATOM      5  H   UNL     1      10.971   1.566  -0.652  1.00  0.00     0.296 HD
ENDBRANCH   2   4
ENDBRANCH   1   2
BRANCH   1   6
ATOM      6  C   UNL     1       7.118  -0.617  -1.554  1.00  0.00     0.047 C 
BRANCH   6   7
ATOM      7  C   UNL     1       6.344   0.240  -0.619  1.00  0.00    -0.047 A 
ATOM      8  C   UNL     1       6.100  -0.174   0.683  1.00  0.00     0.004 A 
ATOM      9  C   UNL     1       5.825   1.468  -0.985  1.00  0.00     0.004 A 
ATOM     10  C   UNL     1       5.378   0.592   1.569  1.00  0.00     0.000 A 
ATOM     11  C   UNL     1       5.102   2.234  -0.096  1.00  0.00     0.000 A 
ATOM     12  C   UNL     1       4.863   1.816   1.194  1.00  0.00     0.000 A 
ENDBRANCH   6   7
ENDBRANCH   1   6
TORSDOF 4
ENDMDL
MODEL 5
REMARK VINA RESULT:      -6.5      1.892      2.867
REMARK SMILES O=C(O)CCc1ccccc1
REMARK SMILES IDX 4 1 2 2 1 3 3 4 5 6 6 7 7 8 11 9 8 10 10 11 9 12
REMARK H PARENT 3 5
REMARK Flexibility Score: inf
ROOT
ATOM      1  C   UNL     1       8.093  -1.639   1.206  1.00  0.00     0.127 C 
ENDROOT
BRANCH   1   2
ATOM      2  C   UNL     1       8.473  -2.801   0.382  1.00  0.00     0.303 C 
ATOM      3  O   UNL     1       9.195  -3.701   0.890  1.00  0.00    -0.252 OA
BRANCH   2   4
ATOM      4  O   UNL     1       8.057  -2.941  -0.950  1.00  0.00    -0.481 OA
ATOM      5  H   UNL     1       7.081  -3.131  -1.134  1.00  0.00     0.296 HD
ENDBRANCH   2   4
ENDBRANCH   1   2
BRANCH   1   6
ATOM      6  C   UNL     1       6.587  -1.507   1.350  1.00  0.00     0.047 C 
BRANCH   6   7
ATOM      7  C   UNL     1       6.110  -0.216   0.789  1.00  0.00    -0.047 A 
ATOM      8  C   UNL     1       5.366   0.661   1.565  1.00  0.00     0.004 A 
ATOM      9  C   UNL     1       6.364   0.174  -0.513  1.00  0.00     0.004 A 
ATOM     10  C   UNL     1       4.900   1.859   1.072  1.00  0.00     0.000 A 
ATOM     11  C   UNL     1       5.898   1.374  -1.005  1.00  0.00     0.000 A 
ATOM     12  C   UNL     1       5.159   2.238  -0.229  1.00  0.00     0.000 A 
ENDBRANCH   6   7
ENDBRANCH   1   6
TORSDOF 4
ENDMDL
