@<TRIPOS>MOLECULE
/home/cewinharhar/GITHUB/reincatalyze/data/processed/docking_pred/2023-Apr-25-2248_maxeplen10_maxtrainstep1000_exh16_gamma099_lrac3e-4_lrcr1e-3/0310d41f91ab2de901a6698b161cc991790b6b4b_ligand_2.pdbqt
 12 12 0 0 0
SMALL
GASTEIGER

@<TRIPOS>ATOM
      1  C          8.0930   -1.6390    1.2060 C.3     1  UNL1        0.1270
      2  C          8.4730   -2.8010    0.3820 C.2     1  UNL1        0.3030
      3  O          9.1950   -3.7010    0.8900 O.2     1  UNL1       -0.2520
      4  O          8.0570   -2.9410   -0.9500 O.3     1  UNL1       -0.4810
      5  H          7.0810   -3.1310   -1.1340 H       1  UNL1        0.2960
      6  C          6.5870   -1.5070    1.3500 C.3     1  UNL1        0.0470
      7  C          6.1100   -0.2160    0.7890 C.2     1  UNL1       -0.0470
      8  C          5.3660    0.6610    1.5650 C.2     1  UNL1        0.0040
      9  C          6.3640    0.1740   -0.5130 C.2     1  UNL1        0.0040
     10  C          4.9000    1.8590    1.0720 C.2     1  UNL1        0.0000
     11  C          5.8980    1.3740   -1.0050 C.2     1  UNL1        0.0000
     12  C          5.1590    2.2380   -0.2290 C.2     1  UNL1        0.0000
@<TRIPOS>BOND
     1     5     4    1
     2    11     9    1
     3    11    12    2
     4     4     2    1
     5     9     7    2
     6    12    10    1
     7     2     3    2
     8     2     1    1
     9     7     6    1
    10     7     8    1
    11    10     8    2
    12     1     6    1
