@<TRIPOS>MOLECULE
/home/cewinharhar/GITHUB/reincatalyze/data/processed/docking_pred/2023-Apr-25-2248_maxeplen10_maxtrainstep1000_exh16_gamma099_lrac3e-4_lrcr1e-3/0310d41f91ab2de901a6698b161cc991790b6b4b_ligand_2.pdbqt
 12 12 0 0 0
SMALL
GASTEIGER

@<TRIPOS>ATOM
      1  C          8.4080   -0.6550   -2.1060 C.3     1  UNL1        0.1270
      2  C          8.4430   -1.9030   -2.8880 C.2     1  UNL1        0.3030
      3  O          9.5510   -2.4720   -3.0850 O.2     1  UNL1       -0.2520
      4  O          7.2830   -2.4840   -3.4210 O.3     1  UNL1       -0.4810
      5  H          6.4490   -1.9170   -3.4950 H       1  UNL1        0.2960
      6  C          7.0340   -0.0100   -2.1140 C.3     1  UNL1        0.0470
      7  C          6.4750    0.0720   -0.7390 C.2     1  UNL1       -0.0470
      8  C          5.8030    1.2090   -0.3150 C.2     1  UNL1        0.0040
      9  C          6.5990   -0.9530    0.1810 C.2     1  UNL1        0.0040
     10  C          5.2830    1.3190    0.9540 C.2     1  UNL1        0.0000
     11  C          6.0780   -0.8410    1.4520 C.2     1  UNL1        0.0000
     12  C          5.4130    0.2910    1.8660 C.2     1  UNL1        0.0000
@<TRIPOS>BOND
     1     5     4    1
     2     4     2    1
     3     3     2    2
     4     2     1    1
     5     6     1    1
     6     6     7    1
     7     7     8    2
     8     7     9    1
     9     8    10    1
    10     9    11    2
    11    10    12    2
    12    11    12    1
