@<TRIPOS>MOLECULE
/home/cewinharhar/GITHUB/reincatalyze/data/processed/docking_pred/2023-Apr-25-2248_maxeplen10_maxtrainstep1000_exh16_gamma099_lrac3e-4_lrcr1e-3/0310d41f91ab2de901a6698b161cc991790b6b4b_ligand_2.pdbqt
 12 12 0 0 0
SMALL
GASTEIGER

@<TRIPOS>ATOM
      1  C          8.2670    0.1560   -2.1760 C.3     1  UNL1        0.1270
      2  C          9.3850    0.3450   -1.2340 C.2     1  UNL1        0.3030
      3  O          9.4630   -0.4000   -0.2190 O.2     1  UNL1       -0.2520
      4  O         10.3680    1.3260   -1.4280 O.3     1  UNL1       -0.4810
      5  H         10.9710    1.5660   -0.6520 H       1  UNL1        0.2960
      6  C          7.1180   -0.6170   -1.5540 C.3     1  UNL1        0.0470
      7  C          6.3440    0.2400   -0.6190 C.2     1  UNL1       -0.0470
      8  C          6.1000   -0.1740    0.6830 C.2     1  UNL1        0.0040
      9  C          5.8250    1.4680   -0.9850 C.2     1  UNL1        0.0040
     10  C          5.3780    0.5920    1.5690 C.2     1  UNL1        0.0000
     11  C          5.1020    2.2340   -0.0960 C.2     1  UNL1        0.0000
     12  C          4.8630    1.8160    1.1940 C.2     1  UNL1        0.0000
@<TRIPOS>BOND
     1     1     6    1
     2     1     2    1
     3     6     7    1
     4     4     2    1
     5     4     5    1
     6     2     3    2
     7     9     7    2
     8     9    11    1
     9     7     8    1
    10    11    12    2
    11     8    10    2
    12    12    10    1
