@<TRIPOS>MOLECULE
/home/cewinharhar/GITHUB/reincatalyze/data/processed/docking_pred/2023-Apr-25-2248_maxeplen10_maxtrainstep1000_exh16_gamma099_lrac3e-4_lrcr1e-3/0310d41f91ab2de901a6698b161cc991790b6b4b_ligand_2.pdbqt
 12 12 0 0 0
SMALL
GASTEIGER

@<TRIPOS>ATOM
      1  C          8.4270   -0.7700   -2.0010 C.3     1  UNL1        0.1270
      2  C          8.4080   -1.9660   -2.8630 C.2     1  UNL1        0.3030
      3  O          7.2980   -2.4210   -3.2530 O.2     1  UNL1       -0.2520
      4  O          9.5830   -2.6160   -3.2660 O.3     1  UNL1       -0.4810
      5  H         10.4040   -2.5370   -2.6820 H       1  UNL1        0.2960
      6  C          7.1330    0.0190   -2.0850 C.3     1  UNL1        0.0470
      7  C          6.5140    0.1720   -0.7420 C.2     1  UNL1       -0.0470
      8  C          6.6270   -0.8330    0.2070 C.2     1  UNL1        0.0040
      9  C          5.7970    1.2950   -0.3720 C.2     1  UNL1        0.0040
     10  C          6.0570   -0.7260    1.4550 C.2     1  UNL1        0.0000
     11  C          5.2270    1.4010    0.8780 C.2     1  UNL1        0.0000
     12  C          5.3420    0.3990    1.8140 C.2     1  UNL1        0.0000
@<TRIPOS>BOND
     1     4     2    1
     2     4     5    1
     3     3     2    2
     4     2     1    1
     5     6     1    1
     6     6     7    1
     7     7     9    2
     8     7     8    1
     9     9    11    1
    10     8    10    2
    11    11    12    2
    12    10    12    1
