@<TRIPOS>MOLECULE
/home/cewinharhar/GITHUB/reincatalyze/data/processed/docking_pred/2023-Apr-25-2248_maxeplen10_maxtrainstep1000_exh16_gamma099_lrac3e-4_lrcr1e-3/034cecc51265c6b10d0b2cc1c9f67b1ec6b5e3be_ligand_2.pdbqt
 12 12 0 0 0
SMALL
GASTEIGER

@<TRIPOS>ATOM
      1  C          8.4000   -0.7010   -2.0700 C.3     1  UNL1        0.1270
      2  C          8.4020   -1.9310   -2.8800 C.2     1  UNL1        0.3030
      3  O          7.3000   -2.4270   -3.2440 O.2     1  UNL1       -0.2520
      4  O          9.5880   -2.5720   -3.2640 O.3     1  UNL1       -0.4810
      5  H         10.1220   -2.1830   -4.0300 H       1  UNL1        0.2960
      6  C          7.0530   -0.0010   -2.0920 C.3     1  UNL1        0.0470
      7  C          6.4750    0.0870   -0.7250 C.2     1  UNL1       -0.0470
      8  C          5.8010    1.2280   -0.3130 C.2     1  UNL1        0.0040
      9  C          6.5820   -0.9360    0.1990 C.2     1  UNL1        0.0040
     10  C          5.2650    1.3440    0.9490 C.2     1  UNL1        0.0000
     11  C          6.0440   -0.8180    1.4630 C.2     1  UNL1        0.0000
     12  C          5.3780    0.3170    1.8650 C.2     1  UNL1        0.0000
@<TRIPOS>BOND
     1     5     4    1
     2     4     2    1
     3     3     2    2
     4     2     1    1
     5     6     1    1
     6     6     7    1
     7     7     8    2
     8     7     9    1
     9     8    10    1
    10     9    11    2
    11    10    12    2
    12    11    12    1
