MODEL 1
REMARK VINA RESULT:      -7.3      0.000      0.000
REMARK SMILES O=C(O)CCc1ccccc1
REMARK SMILES IDX 4 1 2 2 1 3 3 4 5 6 6 7 7 8 11 9 8 10 10 11 9 12
REMARK H PARENT 3 5
REMARK Flexibility Score: inf
ROOT
ATOM      1  C   UNL     1       8.400  -0.701  -2.070  1.00  0.00     0.127 C 
ENDROOT
BRANCH   1   2
ATOM      2  C   UNL     1       8.402  -1.931  -2.880  1.00  0.00     0.303 C 
ATOM      3  O   UNL     1       7.300  -2.427  -3.244  1.00  0.00    -0.252 OA
BRANCH   2   4
ATOM      4  O   UNL     1       9.588  -2.572  -3.264  1.00  0.00    -0.481 OA
ATOM      5  H   UNL     1      10.122  -2.183  -4.030  1.00  0.00     0.296 HD
ENDBRANCH   2   4
ENDBRANCH   1   2
BRANCH   1   6
ATOM      6  C   UNL     1       7.053  -0.001  -2.092  1.00  0.00     0.047 C 
BRANCH   6   7
ATOM      7  C   UNL     1       6.475   0.087  -0.725  1.00  0.00    -0.047 A 
ATOM      8  C   UNL     1       5.801   1.228  -0.313  1.00  0.00     0.004 A 
ATOM      9  C   UNL     1       6.582  -0.936   0.199  1.00  0.00     0.004 A 
ATOM     10  C   UNL     1       5.265   1.344   0.949  1.00  0.00     0.000 A 
ATOM     11  C   UNL     1       6.044  -0.818   1.463  1.00  0.00     0.000 A 
ATOM     12  C   UNL     1       5.378   0.317   1.865  1.00  0.00     0.000 A 
ENDBRANCH   6   7
ENDBRANCH   1   6
TORSDOF 4
ENDMDL
MODEL 2
REMARK VINA RESULT:      -7.2      0.063      1.422
REMARK SMILES O=C(O)CCc1ccccc1
REMARK SMILES IDX 4 1 2 2 1 3 3 4 5 6 6 7 7 8 11 9 8 10 10 11 9 12
REMARK H PARENT 3 5
REMARK Flexibility Score: inf
ROOT
ATOM      1  C   UNL     1       8.394  -0.641  -2.135  1.00  0.00     0.127 C 
ENDROOT
BRANCH   1   2
ATOM      2  C   UNL     1       8.399  -1.903  -2.897  1.00  0.00     0.303 C 
ATOM      3  O   UNL     1       7.299  -2.420  -3.233  1.00  0.00    -0.252 OA
BRANCH   2   4
ATOM      4  O   UNL     1       9.588  -2.550  -3.264  1.00  0.00    -0.481 OA
ATOM      5  H   UNL     1       9.729  -3.507  -2.969  1.00  0.00     0.296 HD
ENDBRANCH   2   4
ENDBRANCH   1   2
BRANCH   1   6
ATOM      6  C   UNL     1       7.032   0.028  -2.144  1.00  0.00     0.047 C 
BRANCH   6   7
ATOM      7  C   UNL     1       6.478   0.128  -0.768  1.00  0.00    -0.047 A 
ATOM      8  C   UNL     1       6.616  -0.924   0.128  1.00  0.00     0.004 A 
ATOM      9  C   UNL     1       5.801   1.244  -0.312  1.00  0.00     0.004 A 
ATOM     10  C   UNL     1       6.106  -0.867   1.404  1.00  0.00     0.000 A 
ATOM     11  C   UNL     1       5.291   1.299   0.967  1.00  0.00     0.000 A 
ATOM     12  C   UNL     1       5.430   0.252   1.849  1.00  0.00     0.000 A 
ENDBRANCH   6   7
ENDBRANCH   1   6
TORSDOF 4
ENDMDL
MODEL 3
REMARK VINA RESULT:      -6.8      3.327      5.166
REMARK SMILES O=C(O)CCc1ccccc1
REMARK SMILES IDX 4 1 2 2 1 3 3 4 5 6 6 7 7 8 11 9 8 10 10 11 9 12
REMARK H PARENT 3 5
REMARK Flexibility Score: inf
ROOT
ATOM      1  C   UNL     1       5.014   1.784   0.737  1.00  0.00     0.127 C 
ENDROOT
BRANCH   1   2
ATOM      2  C   UNL     1       4.474   1.111   1.932  1.00  0.00     0.303 C 
ATOM      3  O   UNL     1       5.153   0.201   2.481  1.00  0.00    -0.252 OA
BRANCH   2   4
ATOM      4  O   UNL     1       3.230   1.450   2.483  1.00  0.00    -0.481 OA
ATOM      5  H   UNL     1       2.981   1.068   3.386  1.00  0.00     0.296 HD
ENDBRANCH   2   4
ENDBRANCH   1   2
BRANCH   1   6
ATOM      6  C   UNL     1       6.529   1.874   0.764  1.00  0.00     0.047 C 
BRANCH   6   7
ATOM      7  C   UNL     1       7.130   1.063  -0.327  1.00  0.00    -0.047 A 
ATOM      8  C   UNL     1       8.467   1.215  -0.666  1.00  0.00     0.004 A 
ATOM      9  C   UNL     1       6.408   0.138  -1.057  1.00  0.00     0.004 A 
ATOM     10  C   UNL     1       9.051   0.486  -1.678  1.00  0.00     0.000 A 
ATOM     11  C   UNL     1       6.994  -0.591  -2.070  1.00  0.00     0.000 A 
ATOM     12  C   UNL     1       8.320  -0.434  -2.402  1.00  0.00     0.000 A 
ENDBRANCH   6   7
ENDBRANCH   1   6
TORSDOF 4
ENDMDL
MODEL 4
REMARK VINA RESULT:      -6.5      2.051      2.260
REMARK SMILES O=C(O)CCc1ccccc1
REMARK SMILES IDX 4 1 2 2 1 3 3 4 5 6 6 7 7 8 11 9 8 10 10 11 9 12
REMARK H PARENT 3 5
REMARK Flexibility Score: inf
ROOT
ATOM      1  C   UNL     1       8.493   0.674  -1.687  1.00  0.00     0.127 C 
ENDROOT
BRANCH   1   2
ATOM      2  C   UNL     1       9.652   0.307  -0.853  1.00  0.00     0.303 C 
ATOM      3  O   UNL     1       9.489  -0.500   0.101  1.00  0.00    -0.252 OA
BRANCH   2   4
ATOM      4  O   UNL     1      10.934   0.826  -1.085  1.00  0.00    -0.481 OA
ATOM      5  H   UNL     1      11.133   1.772  -0.791  1.00  0.00     0.296 HD
ENDBRANCH   2   4
ENDBRANCH   1   2
BRANCH   1   6
ATOM      6  C   UNL     1       7.305  -0.242  -1.452  1.00  0.00     0.047 C 
BRANCH   6   7
ATOM      7  C   UNL     1       6.420   0.297  -0.387  1.00  0.00    -0.047 A 
ATOM      8  C   UNL     1       5.781   1.518  -0.549  1.00  0.00     0.004 A 
ATOM      9  C   UNL     1       6.194  -0.367   0.805  1.00  0.00     0.004 A 
ATOM     10  C   UNL     1       4.963   2.048   0.423  1.00  0.00     0.000 A 
ATOM     11  C   UNL     1       5.375   0.166   1.777  1.00  0.00     0.000 A 
ATOM     12  C   UNL     1       4.745   1.379   1.610  1.00  0.00     0.000 A 
ENDBRANCH   6   7
ENDBRANCH   1   6
TORSDOF 4
ENDMDL
MODEL 5
REMARK VINA RESULT:      -6.5      2.123      2.773
REMARK SMILES O=C(O)CCc1ccccc1
REMARK SMILES IDX 4 1 2 2 1 3 3 4 5 6 6 7 7 8 11 9 8 10 10 11 9 12
REMARK H PARENT 3 5
REMARK Flexibility Score: inf
ROOT
ATOM      1  C   UNL     1       7.975  -2.368   0.715  1.00  0.00     0.127 C 
ENDROOT
BRANCH   1   2
ATOM      2  C   UNL     1       8.822  -3.502   0.303  1.00  0.00     0.303 C 
ATOM      3  O   UNL     1       8.742  -3.927  -0.881  1.00  0.00    -0.252 OA
BRANCH   2   4
ATOM      4  O   UNL     1       9.717  -4.126   1.184  1.00  0.00    -0.481 OA
ATOM      5  H   UNL     1      10.156  -3.567   1.903  1.00  0.00     0.296 HD
ENDBRANCH   2   4
ENDBRANCH   1   2
BRANCH   1   6
ATOM      6  C   UNL     1       7.531  -1.525  -0.467  1.00  0.00     0.047 C 
BRANCH   6   7
ATOM      7  C   UNL     1       6.660  -0.405  -0.024  1.00  0.00    -0.047 A 
ATOM      8  C   UNL     1       6.117  -0.393   1.253  1.00  0.00     0.004 A 
ATOM      9  C   UNL     1       6.338   0.662  -0.843  1.00  0.00     0.004 A 
ATOM     10  C   UNL     1       5.298   0.624   1.689  1.00  0.00     0.000 A 
ATOM     11  C   UNL     1       5.518   1.679  -0.405  1.00  0.00     0.000 A 
ATOM     12  C   UNL     1       4.982   1.683   0.863  1.00  0.00     0.000 A 
ENDBRANCH   6   7
ENDBRANCH   1   6
TORSDOF 4
ENDMDL
