@<TRIPOS>MOLECULE
/home/cewinharhar/GITHUB/reincatalyze/data/processed/docking_pred/2023-Apr-25-2248_maxeplen10_maxtrainstep1000_exh16_gamma099_lrac3e-4_lrcr1e-3/034cecc51265c6b10d0b2cc1c9f67b1ec6b5e3be_ligand_2.pdbqt
 12 12 0 0 0
SMALL
GASTEIGER

@<TRIPOS>ATOM
      1  C          8.4930    0.6740   -1.6870 C.3     1  UNL1        0.1270
      2  C          9.6520    0.3070   -0.8530 C.2     1  UNL1        0.3030
      3  O          9.4890   -0.5000    0.1010 O.2     1  UNL1       -0.2520
      4  O         10.9340    0.8260   -1.0850 O.3     1  UNL1       -0.4810
      5  H         11.1330    1.7720   -0.7910 H       1  UNL1        0.2960
      6  C          7.3050   -0.2420   -1.4520 C.3     1  UNL1        0.0470
      7  C          6.4200    0.2970   -0.3870 C.2     1  UNL1       -0.0470
      8  C          5.7810    1.5180   -0.5490 C.2     1  UNL1        0.0040
      9  C          6.1940   -0.3670    0.8050 C.2     1  UNL1        0.0040
     10  C          4.9630    2.0480    0.4230 C.2     1  UNL1        0.0000
     11  C          5.3750    0.1660    1.7770 C.2     1  UNL1        0.0000
     12  C          4.7450    1.3790    1.6100 C.2     1  UNL1        0.0000
@<TRIPOS>BOND
     1     1     6    1
     2     1     2    1
     3     6     7    1
     4     4     2    1
     5     4     5    1
     6     2     3    2
     7     8     7    2
     8     8    10    1
     9     7     9    1
    10    10    12    2
    11     9    11    2
    12    12    11    1
