@<TRIPOS>MOLECULE
/home/cewinharhar/GITHUB/reincatalyze/data/processed/docking_pred/2023-Apr-25-2248_maxeplen10_maxtrainstep1000_exh16_gamma099_lrac3e-4_lrcr1e-3/034cecc51265c6b10d0b2cc1c9f67b1ec6b5e3be_ligand_2.pdbqt
 12 12 0 0 0
SMALL
GASTEIGER

@<TRIPOS>ATOM
      1  C          8.3940   -0.6410   -2.1350 C.3     1  UNL1        0.1270
      2  C          8.3990   -1.9030   -2.8970 C.2     1  UNL1        0.3030
      3  O          7.2990   -2.4200   -3.2330 O.2     1  UNL1       -0.2520
      4  O          9.5880   -2.5500   -3.2640 O.3     1  UNL1       -0.4810
      5  H          9.7290   -3.5070   -2.9690 H       1  UNL1        0.2960
      6  C          7.0320    0.0280   -2.1440 C.3     1  UNL1        0.0470
      7  C          6.4780    0.1280   -0.7680 C.2     1  UNL1       -0.0470
      8  C          6.6160   -0.9240    0.1280 C.2     1  UNL1        0.0040
      9  C          5.8010    1.2440   -0.3120 C.2     1  UNL1        0.0040
     10  C          6.1060   -0.8670    1.4040 C.2     1  UNL1        0.0000
     11  C          5.2910    1.2990    0.9670 C.2     1  UNL1        0.0000
     12  C          5.4300    0.2520    1.8490 C.2     1  UNL1        0.0000
@<TRIPOS>BOND
     1     4     5    1
     2     4     2    1
     3     3     2    2
     4     2     1    1
     5     6     1    1
     6     6     7    1
     7     7     9    2
     8     7     8    1
     9     9    11    1
    10     8    10    2
    11    11    12    2
    12    10    12    1
