@<TRIPOS>MOLECULE
/home/cewinharhar/GITHUB/reincatalyze/data/processed/docking_pred/2023-Apr-25-2248_maxeplen10_maxtrainstep1000_exh16_gamma099_lrac3e-4_lrcr1e-3/034cecc51265c6b10d0b2cc1c9f67b1ec6b5e3be_ligand_2.pdbqt
 12 12 0 0 0
SMALL
GASTEIGER

@<TRIPOS>ATOM
      1  C          5.0140    1.7840    0.7370 C.3     1  UNL1        0.1270
      2  C          4.4740    1.1110    1.9320 C.2     1  UNL1        0.3030
      3  O          5.1530    0.2010    2.4810 O.2     1  UNL1       -0.2520
      4  O          3.2300    1.4500    2.4830 O.3     1  UNL1       -0.4810
      5  H          2.9810    1.0680    3.3860 H       1  UNL1        0.2960
      6  C          6.5290    1.8740    0.7640 C.3     1  UNL1        0.0470
      7  C          7.1300    1.0630   -0.3270 C.2     1  UNL1       -0.0470
      8  C          8.4670    1.2150   -0.6660 C.2     1  UNL1        0.0040
      9  C          6.4080    0.1380   -1.0570 C.2     1  UNL1        0.0040
     10  C          9.0510    0.4860   -1.6780 C.2     1  UNL1        0.0000
     11  C          6.9940   -0.5910   -2.0700 C.2     1  UNL1        0.0000
     12  C          8.3200   -0.4340   -2.4020 C.2     1  UNL1        0.0000
@<TRIPOS>BOND
     1    12    11    2
     2    12    10    1
     3    11     9    1
     4    10     8    2
     5     9     7    2
     6     8     7    1
     7     7     6    1
     8     1     6    1
     9     1     2    1
    10     2     3    2
    11     2     4    1
    12     4     5    1
