@<TRIPOS>MOLECULE
/home/cewinharhar/GITHUB/reincatalyze/data/processed/docking_pred/2023-Apr-25-2248_maxeplen10_maxtrainstep1000_exh16_gamma099_lrac3e-4_lrcr1e-3/034cecc51265c6b10d0b2cc1c9f67b1ec6b5e3be_ligand_2.pdbqt
 12 12 0 0 0
SMALL
GASTEIGER

@<TRIPOS>ATOM
      1  C          7.9750   -2.3680    0.7150 C.3     1  UNL1        0.1270
      2  C          8.8220   -3.5020    0.3030 C.2     1  UNL1        0.3030
      3  O          8.7420   -3.9270   -0.8810 O.2     1  UNL1       -0.2520
      4  O          9.7170   -4.1260    1.1840 O.3     1  UNL1       -0.4810
      5  H         10.1560   -3.5670    1.9030 H       1  UNL1        0.2960
      6  C          7.5310   -1.5250   -0.4670 C.3     1  UNL1        0.0470
      7  C          6.6600   -0.4050   -0.0240 C.2     1  UNL1       -0.0470
      8  C          6.1170   -0.3930    1.2530 C.2     1  UNL1        0.0040
      9  C          6.3380    0.6620   -0.8430 C.2     1  UNL1        0.0040
     10  C          5.2980    0.6240    1.6890 C.2     1  UNL1        0.0000
     11  C          5.5180    1.6790   -0.4050 C.2     1  UNL1        0.0000
     12  C          4.9820    1.6830    0.8630 C.2     1  UNL1        0.0000
@<TRIPOS>BOND
     1     3     2    2
     2     9    11    1
     3     9     7    2
     4     6     7    1
     5     6     1    1
     6    11    12    2
     7     7     8    1
     8     2     1    1
     9     2     4    1
    10    12    10    1
    11     4     5    1
    12     8    10    2
