@<TRIPOS>MOLECULE
/home/cewinharhar/GITHUB/reincatalyze/data/processed/docking_pred/2023-Apr-25-2248_maxeplen10_maxtrainstep1000_exh16_gamma099_lrac3e-4_lrcr1e-3/035d1107efb5fe3e99d2a33353f0da4e413613a6_ligand_2.pdbqt
 12 12 0 0 0
SMALL
GASTEIGER

@<TRIPOS>ATOM
      1  C          8.3150   -0.7970   -2.1190 C.3     1  UNL1        0.1270
      2  C          8.4280   -2.0200   -2.9330 C.2     1  UNL1        0.3030
      3  O          9.5600   -2.5540   -3.0810 O.2     1  UNL1       -0.2520
      4  O          7.3160   -2.6130   -3.5490 O.3     1  UNL1       -0.4810
      5  H          7.2260   -2.5440   -4.5530 H       1  UNL1        0.2960
      6  C          6.8770   -0.4860   -1.7450 C.3     1  UNL1        0.0470
      7  C          6.6560   -0.6560   -0.2850 C.2     1  UNL1       -0.0470
      8  C          5.8340    0.2160    0.4130 C.2     1  UNL1        0.0040
      9  C          7.2530   -1.6650    0.4490 C.2     1  UNL1        0.0040
     10  C          5.6180    0.0920    1.7660 C.2     1  UNL1        0.0000
     11  C          7.0350   -1.7880    1.8040 C.2     1  UNL1        0.0000
     12  C          6.2190   -0.9180    2.4900 C.2     1  UNL1        0.0000
@<TRIPOS>BOND
     1     5     4    1
     2     4     2    1
     3     3     2    2
     4     2     1    1
     5     1     6    1
     6     6     7    1
     7     7     8    2
     8     7     9    1
     9     8    10    1
    10     9    11    2
    11    10    12    2
    12    11    12    1
