@<TRIPOS>MOLECULE
/home/cewinharhar/GITHUB/reincatalyze/data/processed/docking_pred/2023-Apr-25-2248_maxeplen10_maxtrainstep1000_exh16_gamma099_lrac3e-4_lrcr1e-3/035d1107efb5fe3e99d2a33353f0da4e413613a6_ligand_2.pdbqt
 12 12 0 0 0
SMALL
GASTEIGER

@<TRIPOS>ATOM
      1  C          5.0800   -0.0820    1.9880 C.3     1  UNL1        0.1270
      2  C          4.3930    1.2210    1.9620 C.2     1  UNL1        0.3030
      3  O          4.9390    2.1900    1.3680 O.2     1  UNL1       -0.2520
      4  O          3.1470    1.4220    2.5740 O.3     1  UNL1       -0.4810
      5  H          2.9040    0.8530    3.3740 H       1  UNL1        0.2960
      6  C          6.5820    0.0590    1.8170 C.3     1  UNL1        0.0470
      7  C          7.0570   -0.7060    0.6340 C.2     1  UNL1       -0.0470
      8  C          6.6620   -0.3460   -0.6470 C.2     1  UNL1        0.0040
      9  C          7.8940   -1.8020    0.7380 C.2     1  UNL1        0.0040
     10  C          7.0760   -1.0390   -1.7610 C.2     1  UNL1        0.0000
     11  C          8.3070   -2.4950   -0.3790 C.2     1  UNL1        0.0000
     12  C          7.9100   -2.1330   -1.6460 C.2     1  UNL1        0.0000
@<TRIPOS>BOND
     1    10    12    2
     2    10     8    1
     3    12    11    1
     4     8     7    2
     5    11     9    2
     6     7     9    1
     7     7     6    1
     8     3     2    2
     9     6     1    1
    10     2     1    1
    11     2     4    1
    12     4     5    1
