MODEL 1
REMARK VINA RESULT:      -6.4      0.000      0.000
REMARK SMILES O=C(O)CCc1ccccc1
REMARK SMILES IDX 4 1 2 2 1 3 3 4 5 6 6 7 7 8 11 9 8 10 10 11 9 12
REMARK H PARENT 3 5
REMARK Flexibility Score: inf
ROOT
ATOM      1  C   UNL     1       8.315  -0.797  -2.119  1.00  0.00     0.127 C 
ENDROOT
BRANCH   1   2
ATOM      2  C   UNL     1       8.428  -2.020  -2.933  1.00  0.00     0.303 C 
ATOM      3  O   UNL     1       9.560  -2.554  -3.081  1.00  0.00    -0.252 OA
BRANCH   2   4
ATOM      4  O   UNL     1       7.316  -2.613  -3.549  1.00  0.00    -0.481 OA
ATOM      5  H   UNL     1       7.226  -2.544  -4.553  1.00  0.00     0.296 HD
ENDBRANCH   2   4
ENDBRANCH   1   2
BRANCH   1   6
ATOM      6  C   UNL     1       6.877  -0.486  -1.745  1.00  0.00     0.047 C 
BRANCH   6   7
ATOM      7  C   UNL     1       6.656  -0.656  -0.285  1.00  0.00    -0.047 A 
ATOM      8  C   UNL     1       5.834   0.216   0.413  1.00  0.00     0.004 A 
ATOM      9  C   UNL     1       7.253  -1.665   0.449  1.00  0.00     0.004 A 
ATOM     10  C   UNL     1       5.618   0.092   1.766  1.00  0.00     0.000 A 
ATOM     11  C   UNL     1       7.035  -1.788   1.804  1.00  0.00     0.000 A 
ATOM     12  C   UNL     1       6.219  -0.918   2.490  1.00  0.00     0.000 A 
ENDBRANCH   6   7
ENDBRANCH   1   6
TORSDOF 4
ENDMDL
MODEL 2
REMARK VINA RESULT:      -6.4      0.048      1.421
REMARK SMILES O=C(O)CCc1ccccc1
REMARK SMILES IDX 4 1 2 2 1 3 3 4 5 6 6 7 7 8 11 9 8 10 10 11 9 12
REMARK H PARENT 3 5
REMARK Flexibility Score: inf
ROOT
ATOM      1  C   UNL     1       8.325  -0.773  -2.117  1.00  0.00     0.127 C 
ENDROOT
BRANCH   1   2
ATOM      2  C   UNL     1       8.437  -1.980  -2.955  1.00  0.00     0.303 C 
ATOM      3  O   UNL     1       9.574  -2.494  -3.139  1.00  0.00    -0.252 OA
BRANCH   2   4
ATOM      4  O   UNL     1       7.321  -2.580  -3.556  1.00  0.00    -0.481 OA
ATOM      5  H   UNL     1       7.340  -2.746  -4.553  1.00  0.00     0.296 HD
ENDBRANCH   2   4
ENDBRANCH   1   2
BRANCH   1   6
ATOM      6  C   UNL     1       6.884  -0.452  -1.763  1.00  0.00     0.047 C 
BRANCH   6   7
ATOM      7  C   UNL     1       6.648  -0.601  -0.303  1.00  0.00    -0.047 A 
ATOM      8  C   UNL     1       7.240  -1.636   0.407  1.00  0.00     0.004 A 
ATOM      9  C   UNL     1       5.836   0.257   0.415  1.00  0.00     0.004 A 
ATOM     10  C   UNL     1       7.033  -1.807   1.756  1.00  0.00     0.000 A 
ATOM     11  C   UNL     1       5.630   0.084   1.767  1.00  0.00     0.000 A 
ATOM     12  C   UNL     1       6.219  -0.946   2.464  1.00  0.00     0.000 A 
ENDBRANCH   6   7
ENDBRANCH   1   6
TORSDOF 4
ENDMDL
MODEL 3
REMARK VINA RESULT:      -6.3      3.240      5.010
REMARK SMILES O=C(O)CCc1ccccc1
REMARK SMILES IDX 4 1 2 2 1 3 3 4 5 6 6 7 7 8 11 9 8 10 10 11 9 12
REMARK H PARENT 3 5
REMARK Flexibility Score: inf
ROOT
ATOM      1  C   UNL     1       5.870  -0.883   1.770  1.00  0.00     0.127 C 
ENDROOT
BRANCH   1   2
ATOM      2  C   UNL     1       5.335   0.462   2.045  1.00  0.00     0.303 C 
ATOM      3  O   UNL     1       4.157   0.575   2.481  1.00  0.00    -0.252 OA
BRANCH   2   4
ATOM      4  O   UNL     1       6.093   1.624   1.842  1.00  0.00    -0.481 OA
ATOM      5  H   UNL     1       7.029   1.532   1.470  1.00  0.00     0.296 HD
ENDBRANCH   2   4
ENDBRANCH   1   2
BRANCH   1   6
ATOM      6  C   UNL     1       7.368  -0.865   1.523  1.00  0.00     0.047 C 
BRANCH   6   7
ATOM      7  C   UNL     1       7.668  -0.728   0.073  1.00  0.00    -0.047 A 
ATOM      8  C   UNL     1       8.809  -0.065  -0.354  1.00  0.00     0.004 A 
ATOM      9  C   UNL     1       6.840  -1.232  -0.913  1.00  0.00     0.004 A 
ATOM     10  C   UNL     1       9.109   0.089  -1.688  1.00  0.00     0.000 A 
ATOM     11  C   UNL     1       7.141  -1.077  -2.249  1.00  0.00     0.000 A 
ATOM     12  C   UNL     1       8.275  -0.417  -2.665  1.00  0.00     0.000 A 
ENDBRANCH   6   7
ENDBRANCH   1   6
TORSDOF 4
ENDMDL
MODEL 4
REMARK VINA RESULT:      -6.3      3.218      4.971
REMARK SMILES O=C(O)CCc1ccccc1
REMARK SMILES IDX 4 1 2 2 1 3 3 4 5 6 6 7 7 8 11 9 8 10 10 11 9 12
REMARK H PARENT 3 5
REMARK Flexibility Score: inf
ROOT
ATOM      1  C   UNL     1       6.054  -0.908   1.854  1.00  0.00     0.127 C 
ENDROOT
BRANCH   1   2
ATOM      2  C   UNL     1       5.440   0.414   2.071  1.00  0.00     0.303 C 
ATOM      3  O   UNL     1       4.243   0.477   2.464  1.00  0.00    -0.252 OA
BRANCH   2   4
ATOM      4  O   UNL     1       6.142   1.609   1.857  1.00  0.00    -0.481 OA
ATOM      5  H   UNL     1       7.153   1.578   1.834  1.00  0.00     0.296 HD
ENDBRANCH   2   4
ENDBRANCH   1   2
BRANCH   1   6
ATOM      6  C   UNL     1       7.537  -0.809   1.549  1.00  0.00     0.047 C 
BRANCH   6   7
ATOM      7  C   UNL     1       7.773  -0.667   0.088  1.00  0.00    -0.047 A 
ATOM      8  C   UNL     1       6.887  -1.216  -0.828  1.00  0.00     0.004 A 
ATOM      9  C   UNL     1       8.869  -0.004  -0.433  1.00  0.00     0.004 A 
ATOM     10  C   UNL     1       7.082  -1.112  -2.186  1.00  0.00     0.000 A 
ATOM     11  C   UNL     1       9.063   0.100  -1.793  1.00  0.00     0.000 A 
ATOM     12  C   UNL     1       8.180  -0.449  -2.696  1.00  0.00     0.000 A 
ENDBRANCH   6   7
ENDBRANCH   1   6
TORSDOF 4
ENDMDL
MODEL 5
REMARK VINA RESULT:      -6.2      3.499      4.994
REMARK SMILES O=C(O)CCc1ccccc1
REMARK SMILES IDX 4 1 2 2 1 3 3 4 5 6 6 7 7 8 11 9 8 10 10 11 9 12
REMARK H PARENT 3 5
REMARK Flexibility Score: inf
ROOT
ATOM      1  C   UNL     1       5.080  -0.082   1.988  1.00  0.00     0.127 C 
ENDROOT
BRANCH   1   2
ATOM      2  C   UNL     1       4.393   1.221   1.962  1.00  0.00     0.303 C 
ATOM      3  O   UNL     1       4.939   2.190   1.368  1.00  0.00    -0.252 OA
BRANCH   2   4
ATOM      4  O   UNL     1       3.147   1.422   2.574  1.00  0.00    -0.481 OA
ATOM      5  H   UNL     1       2.904   0.853   3.374  1.00  0.00     0.296 HD
ENDBRANCH   2   4
ENDBRANCH   1   2
BRANCH   1   6
ATOM      6  C   UNL     1       6.582   0.059   1.817  1.00  0.00     0.047 C 
BRANCH   6   7
ATOM      7  C   UNL     1       7.057  -0.706   0.634  1.00  0.00    -0.047 A 
ATOM      8  C   UNL     1       6.662  -0.346  -0.647  1.00  0.00     0.004 A 
ATOM      9  C   UNL     1       7.894  -1.802   0.738  1.00  0.00     0.004 A 
ATOM     10  C   UNL     1       7.076  -1.039  -1.761  1.00  0.00     0.000 A 
ATOM     11  C   UNL     1       8.307  -2.495  -0.379  1.00  0.00     0.000 A 
ATOM     12  C   UNL     1       7.910  -2.133  -1.646  1.00  0.00     0.000 A 
ENDBRANCH   6   7
ENDBRANCH   1   6
TORSDOF 4
ENDMDL
