@<TRIPOS>MOLECULE
/home/cewinharhar/GITHUB/reincatalyze/data/processed/docking_pred/2023-Apr-25-2248_maxeplen10_maxtrainstep1000_exh16_gamma099_lrac3e-4_lrcr1e-3/035d1107efb5fe3e99d2a33353f0da4e413613a6_ligand_2.pdbqt
 12 12 0 0 0
SMALL
GASTEIGER

@<TRIPOS>ATOM
      1  C          6.0540   -0.9080    1.8540 C.3     1  UNL1        0.1270
      2  C          5.4400    0.4140    2.0710 C.2     1  UNL1        0.3030
      3  O          4.2430    0.4770    2.4640 O.2     1  UNL1       -0.2520
      4  O          6.1420    1.6090    1.8570 O.3     1  UNL1       -0.4810
      5  H          7.1530    1.5780    1.8340 H       1  UNL1        0.2960
      6  C          7.5370   -0.8090    1.5490 C.3     1  UNL1        0.0470
      7  C          7.7730   -0.6670    0.0880 C.2     1  UNL1       -0.0470
      8  C          6.8870   -1.2160   -0.8280 C.2     1  UNL1        0.0040
      9  C          8.8690   -0.0040   -0.4330 C.2     1  UNL1        0.0040
     10  C          7.0820   -1.1120   -2.1860 C.2     1  UNL1        0.0000
     11  C          9.0630    0.1000   -1.7930 C.2     1  UNL1        0.0000
     12  C          8.1800   -0.4490   -2.6960 C.2     1  UNL1        0.0000
@<TRIPOS>BOND
     1    12    10    2
     2    12    11    1
     3    10     8    1
     4    11     9    2
     5     8     7    2
     6     9     7    1
     7     7     6    1
     8     6     1    1
     9     5     4    1
    10     1     2    1
    11     4     2    1
    12     2     3    2
