@<TRIPOS>MOLECULE
/home/cewinharhar/GITHUB/reincatalyze/data/processed/docking_pred/2023-Apr-25-2248_maxeplen10_maxtrainstep1000_exh16_gamma099_lrac3e-4_lrcr1e-3/035d1107efb5fe3e99d2a33353f0da4e413613a6_ligand_2.pdbqt
 12 12 0 0 0
SMALL
GASTEIGER

@<TRIPOS>ATOM
      1  C          5.8700   -0.8830    1.7700 C.3     1  UNL1        0.1270
      2  C          5.3350    0.4620    2.0450 C.2     1  UNL1        0.3030
      3  O          4.1570    0.5750    2.4810 O.2     1  UNL1       -0.2520
      4  O          6.0930    1.6240    1.8420 O.3     1  UNL1       -0.4810
      5  H          7.0290    1.5320    1.4700 H       1  UNL1        0.2960
      6  C          7.3680   -0.8650    1.5230 C.3     1  UNL1        0.0470
      7  C          7.6680   -0.7280    0.0730 C.2     1  UNL1       -0.0470
      8  C          8.8090   -0.0650   -0.3540 C.2     1  UNL1        0.0040
      9  C          6.8400   -1.2320   -0.9130 C.2     1  UNL1        0.0040
     10  C          9.1090    0.0890   -1.6880 C.2     1  UNL1        0.0000
     11  C          7.1410   -1.0770   -2.2490 C.2     1  UNL1        0.0000
     12  C          8.2750   -0.4170   -2.6650 C.2     1  UNL1        0.0000
@<TRIPOS>BOND
     1    12    11    2
     2    12    10    1
     3    11     9    1
     4    10     8    2
     5     9     7    2
     6     8     7    1
     7     7     6    1
     8     5     4    1
     9     6     1    1
    10     1     2    1
    11     4     2    1
    12     2     3    2
