@<TRIPOS>MOLECULE
/home/cewinharhar/GITHUB/reincatalyze/data/processed/docking_pred/2023-Apr-25-2248_maxeplen10_maxtrainstep1000_exh16_gamma099_lrac3e-4_lrcr1e-3/035d1107efb5fe3e99d2a33353f0da4e413613a6_ligand_2.pdbqt
 12 12 0 0 0
SMALL
GASTEIGER

@<TRIPOS>ATOM
      1  C          8.3250   -0.7730   -2.1170 C.3     1  UNL1        0.1270
      2  C          8.4370   -1.9800   -2.9550 C.2     1  UNL1        0.3030
      3  O          9.5740   -2.4940   -3.1390 O.2     1  UNL1       -0.2520
      4  O          7.3210   -2.5800   -3.5560 O.3     1  UNL1       -0.4810
      5  H          7.3400   -2.7460   -4.5530 H       1  UNL1        0.2960
      6  C          6.8840   -0.4520   -1.7630 C.3     1  UNL1        0.0470
      7  C          6.6480   -0.6010   -0.3030 C.2     1  UNL1       -0.0470
      8  C          7.2400   -1.6360    0.4070 C.2     1  UNL1        0.0040
      9  C          5.8360    0.2570    0.4150 C.2     1  UNL1        0.0040
     10  C          7.0330   -1.8070    1.7560 C.2     1  UNL1        0.0000
     11  C          5.6300    0.0840    1.7670 C.2     1  UNL1        0.0000
     12  C          6.2190   -0.9460    2.4640 C.2     1  UNL1        0.0000
@<TRIPOS>BOND
     1     5     4    1
     2     4     2    1
     3     3     2    2
     4     2     1    1
     5     1     6    1
     6     6     7    1
     7     7     8    2
     8     7     9    1
     9     8    10    1
    10     9    11    2
    11    10    12    2
    12    11    12    1
