@<TRIPOS>MOLECULE
/home/cewinharhar/GITHUB/reincatalyze/data/processed/docking_pred/2023-Apr-25-2248_maxeplen10_maxtrainstep1000_exh16_gamma099_lrac3e-4_lrcr1e-3/0493ae4577fb245076a56c9e7bbbfc493763ce5a_ligand_2.pdbqt
 12 12 0 0 0
SMALL
GASTEIGER

@<TRIPOS>ATOM
      1  C          8.3830   -0.6210   -2.1910 C.3     1  UNL1        0.1270
      2  C          8.4040   -1.9050   -2.9130 C.2     1  UNL1        0.3030
      3  O          7.3110   -2.4380   -3.2470 O.2     1  UNL1       -0.2520
      4  O          9.6000   -2.5580   -3.2440 O.3     1  UNL1       -0.4810
      5  H          9.5660   -3.5410   -3.4790 H       1  UNL1        0.2960
      6  C          7.0020    0.0080   -2.1790 C.3     1  UNL1        0.0470
      7  C          6.4740    0.1090   -0.7930 C.2     1  UNL1       -0.0470
      8  C          6.6150   -0.9470    0.0960 C.2     1  UNL1        0.0040
      9  C          5.8180    1.2310   -0.3210 C.2     1  UNL1        0.0040
     10  C          6.1280   -0.8890    1.3820 C.2     1  UNL1        0.0000
     11  C          5.3310    1.2880    0.9670 C.2     1  UNL1        0.0000
     12  C          5.4740    0.2350    1.8430 C.2     1  UNL1        0.0000
@<TRIPOS>BOND
     1     5     4    1
     2     3     2    2
     3     4     2    1
     4     2     1    1
     5     1     6    1
     6     6     7    1
     7     7     9    2
     8     7     8    1
     9     9    11    1
    10     8    10    2
    11    11    12    2
    12    10    12    1
