@<TRIPOS>MOLECULE
/home/cewinharhar/GITHUB/reincatalyze/data/processed/docking_pred/2023-Apr-25-2248_maxeplen10_maxtrainstep1000_exh16_gamma099_lrac3e-4_lrcr1e-3/0493ae4577fb245076a56c9e7bbbfc493763ce5a_ligand_2.pdbqt
 12 12 0 0 0
SMALL
GASTEIGER

@<TRIPOS>ATOM
      1  C          8.3130    0.1350   -2.1930 C.3     1  UNL1        0.1270
      2  C          9.4190    0.3530   -1.2440 C.2     1  UNL1        0.3030
      3  O          9.4950   -0.3720   -0.2160 O.2     1  UNL1       -0.2520
      4  O         10.3940    1.3400   -1.4460 O.3     1  UNL1       -0.4810
      5  H         11.2260    1.3230   -0.8720 H       1  UNL1        0.2960
      6  C          7.1700   -0.6480   -1.5720 C.3     1  UNL1        0.0470
      7  C          6.3790    0.2070   -0.6490 C.2     1  UNL1       -0.0470
      8  C          5.8630    1.4220   -1.0770 C.2     1  UNL1        0.0040
      9  C          6.1230   -0.1460    0.6630 C.2     1  UNL1        0.0040
     10  C          5.1360    2.2400   -0.2440 C.2     1  UNL1        0.0000
     11  C          5.3940    0.6750    1.4960 C.2     1  UNL1        0.0000
     12  C          4.8870    1.8800    1.0650 C.2     1  UNL1        0.0000
@<TRIPOS>BOND
     1     1     6    1
     2     1     2    1
     3     6     7    1
     4     4     2    1
     5     4     5    1
     6     2     3    2
     7     8     7    2
     8     8    10    1
     9     7     9    1
    10    10    12    2
    11     9    11    2
    12    12    11    1
