MODEL 1
REMARK VINA RESULT:      -7.2      0.000      0.000
REMARK SMILES O=C(O)CCc1ccccc1
REMARK SMILES IDX 4 1 2 2 1 3 3 4 5 6 6 7 7 8 11 9 8 10 10 11 9 12
REMARK H PARENT 3 5
REMARK Flexibility Score: inf
ROOT
ATOM      1  C   UNL     1       8.408  -0.656  -2.122  1.00  0.00     0.127 C 
ENDROOT
BRANCH   1   2
ATOM      2  C   UNL     1       8.402  -1.916  -2.885  1.00  0.00     0.303 C 
ATOM      3  O   UNL     1       7.299  -2.416  -3.234  1.00  0.00    -0.252 OA
BRANCH   2   4
ATOM      4  O   UNL     1       9.585  -2.580  -3.240  1.00  0.00    -0.481 OA
ATOM      5  H   UNL     1       9.768  -2.752  -4.220  1.00  0.00     0.296 HD
ENDBRANCH   2   4
ENDBRANCH   1   2
BRANCH   1   6
ATOM      6  C   UNL     1       7.055   0.034  -2.143  1.00  0.00     0.047 C 
BRANCH   6   7
ATOM      7  C   UNL     1       6.483   0.126  -0.775  1.00  0.00    -0.047 A 
ATOM      8  C   UNL     1       5.795   1.262  -0.370  1.00  0.00     0.004 A 
ATOM      9  C   UNL     1       6.607  -0.887   0.158  1.00  0.00     0.004 A 
ATOM     10  C   UNL     1       5.262   1.382   0.893  1.00  0.00     0.000 A 
ATOM     11  C   UNL     1       6.073  -0.765   1.423  1.00  0.00     0.000 A 
ATOM     12  C   UNL     1       5.393   0.365   1.817  1.00  0.00     0.000 A 
ENDBRANCH   6   7
ENDBRANCH   1   6
TORSDOF 4
ENDMDL
MODEL 2
REMARK VINA RESULT:      -7.2      0.090      1.423
REMARK SMILES O=C(O)CCc1ccccc1
REMARK SMILES IDX 4 1 2 2 1 3 3 4 5 6 6 7 7 8 11 9 8 10 10 11 9 12
REMARK H PARENT 3 5
REMARK Flexibility Score: inf
ROOT
ATOM      1  C   UNL     1       8.383  -0.621  -2.191  1.00  0.00     0.127 C 
ENDROOT
BRANCH   1   2
ATOM      2  C   UNL     1       8.404  -1.905  -2.913  1.00  0.00     0.303 C 
ATOM      3  O   UNL     1       7.311  -2.438  -3.247  1.00  0.00    -0.252 OA
BRANCH   2   4
ATOM      4  O   UNL     1       9.600  -2.558  -3.244  1.00  0.00    -0.481 OA
ATOM      5  H   UNL     1       9.566  -3.541  -3.479  1.00  0.00     0.296 HD
ENDBRANCH   2   4
ENDBRANCH   1   2
BRANCH   1   6
ATOM      6  C   UNL     1       7.002   0.008  -2.179  1.00  0.00     0.047 C 
BRANCH   6   7
ATOM      7  C   UNL     1       6.474   0.109  -0.793  1.00  0.00    -0.047 A 
ATOM      8  C   UNL     1       6.615  -0.947   0.096  1.00  0.00     0.004 A 
ATOM      9  C   UNL     1       5.818   1.231  -0.321  1.00  0.00     0.004 A 
ATOM     10  C   UNL     1       6.128  -0.889   1.382  1.00  0.00     0.000 A 
ATOM     11  C   UNL     1       5.331   1.288   0.967  1.00  0.00     0.000 A 
ATOM     12  C   UNL     1       5.474   0.235   1.843  1.00  0.00     0.000 A 
ENDBRANCH   6   7
ENDBRANCH   1   6
TORSDOF 4
ENDMDL
MODEL 3
REMARK VINA RESULT:      -6.7      3.288      5.127
REMARK SMILES O=C(O)CCc1ccccc1
REMARK SMILES IDX 4 1 2 2 1 3 3 4 5 6 6 7 7 8 11 9 8 10 10 11 9 12
REMARK H PARENT 3 5
REMARK Flexibility Score: inf
ROOT
ATOM      1  C   UNL     1       5.036   1.694   0.716  1.00  0.00     0.127 C 
ENDROOT
BRANCH   1   2
ATOM      2  C   UNL     1       4.565   1.028   1.943  1.00  0.00     0.303 C 
ATOM      3  O   UNL     1       5.300   0.162   2.490  1.00  0.00    -0.252 OA
BRANCH   2   4
ATOM      4  O   UNL     1       3.325   1.325   2.526  1.00  0.00    -0.481 OA
ATOM      5  H   UNL     1       2.758   0.563   2.873  1.00  0.00     0.296 HD
ENDBRANCH   2   4
ENDBRANCH   1   2
BRANCH   1   6
ATOM      6  C   UNL     1       6.545   1.868   0.700  1.00  0.00     0.047 C 
BRANCH   6   7
ATOM      7  C   UNL     1       7.164   1.047  -0.373  1.00  0.00    -0.047 A 
ATOM      8  C   UNL     1       8.503   1.204  -0.701  1.00  0.00     0.004 A 
ATOM      9  C   UNL     1       6.456   0.106  -1.098  1.00  0.00     0.004 A 
ATOM     10  C   UNL     1       9.103   0.467  -1.696  1.00  0.00     0.000 A 
ATOM     11  C   UNL     1       7.058  -0.632  -2.095  1.00  0.00     0.000 A 
ATOM     12  C   UNL     1       8.387  -0.469  -2.415  1.00  0.00     0.000 A 
ENDBRANCH   6   7
ENDBRANCH   1   6
TORSDOF 4
ENDMDL
MODEL 4
REMARK VINA RESULT:      -6.6      1.941      2.276
REMARK SMILES O=C(O)CCc1ccccc1
REMARK SMILES IDX 4 1 2 2 1 3 3 4 5 6 6 7 7 8 11 9 8 10 10 11 9 12
REMARK H PARENT 3 5
REMARK Flexibility Score: inf
ROOT
ATOM      1  C   UNL     1       8.313   0.135  -2.193  1.00  0.00     0.127 C 
ENDROOT
BRANCH   1   2
ATOM      2  C   UNL     1       9.419   0.353  -1.244  1.00  0.00     0.303 C 
ATOM      3  O   UNL     1       9.495  -0.372  -0.216  1.00  0.00    -0.252 OA
BRANCH   2   4
ATOM      4  O   UNL     1      10.394   1.340  -1.446  1.00  0.00    -0.481 OA
ATOM      5  H   UNL     1      11.226   1.323  -0.872  1.00  0.00     0.296 HD
ENDBRANCH   2   4
ENDBRANCH   1   2
BRANCH   1   6
ATOM      6  C   UNL     1       7.170  -0.648  -1.572  1.00  0.00     0.047 C 
BRANCH   6   7
ATOM      7  C   UNL     1       6.379   0.207  -0.649  1.00  0.00    -0.047 A 
ATOM      8  C   UNL     1       5.863   1.422  -1.077  1.00  0.00     0.004 A 
ATOM      9  C   UNL     1       6.123  -0.146   0.663  1.00  0.00     0.004 A 
ATOM     10  C   UNL     1       5.136   2.240  -0.244  1.00  0.00     0.000 A 
ATOM     11  C   UNL     1       5.394   0.675   1.496  1.00  0.00     0.000 A 
ATOM     12  C   UNL     1       4.887   1.880   1.065  1.00  0.00     0.000 A 
ENDBRANCH   6   7
ENDBRANCH   1   6
TORSDOF 4
ENDMDL
MODEL 5
REMARK VINA RESULT:      -6.5      3.697      5.016
REMARK SMILES O=C(O)CCc1ccccc1
REMARK SMILES IDX 4 1 2 2 1 3 3 4 5 6 6 7 7 8 11 9 8 10 10 11 9 12
REMARK H PARENT 3 5
REMARK Flexibility Score: inf
ROOT
ATOM      1  C   UNL     1       5.399   2.943   0.127  1.00  0.00     0.127 C 
ENDROOT
BRANCH   1   2
ATOM      2  C   UNL     1       6.239   3.891   0.880  1.00  0.00     0.303 C 
ATOM      3  O   UNL     1       6.881   4.775   0.250  1.00  0.00    -0.252 OA
BRANCH   2   4
ATOM      4  O   UNL     1       6.348   3.847   2.277  1.00  0.00    -0.481 OA
ATOM      5  H   UNL     1       6.928   4.535   2.739  1.00  0.00     0.296 HD
ENDBRANCH   2   4
ENDBRANCH   1   2
BRANCH   1   6
ATOM      6  C   UNL     1       5.217   1.628   0.864  1.00  0.00     0.047 C 
BRANCH   6   7
ATOM      7  C   UNL     1       6.019   0.548   0.233  1.00  0.00    -0.047 A 
ATOM      8  C   UNL     1       6.335   0.598  -1.117  1.00  0.00     0.004 A 
ATOM      9  C   UNL     1       6.477  -0.552   0.935  1.00  0.00     0.004 A 
ATOM     10  C   UNL     1       7.067  -0.391  -1.734  1.00  0.00     0.000 A 
ATOM     11  C   UNL     1       7.210  -1.542   0.316  1.00  0.00     0.000 A 
ATOM     12  C   UNL     1       7.519  -1.485  -1.024  1.00  0.00     0.000 A 
ENDBRANCH   6   7
ENDBRANCH   1   6
TORSDOF 4
ENDMDL
