@<TRIPOS>MOLECULE
/home/cewinharhar/GITHUB/reincatalyze/data/processed/docking_pred/2023-Apr-25-2248_maxeplen10_maxtrainstep1000_exh16_gamma099_lrac3e-4_lrcr1e-3/0493ae4577fb245076a56c9e7bbbfc493763ce5a_ligand_2.pdbqt
 12 12 0 0 0
SMALL
GASTEIGER

@<TRIPOS>ATOM
      1  C          5.0360    1.6940    0.7160 C.3     1  UNL1        0.1270
      2  C          4.5650    1.0280    1.9430 C.2     1  UNL1        0.3030
      3  O          5.3000    0.1620    2.4900 O.2     1  UNL1       -0.2520
      4  O          3.3250    1.3250    2.5260 O.3     1  UNL1       -0.4810
      5  H          2.7580    0.5630    2.8730 H       1  UNL1        0.2960
      6  C          6.5450    1.8680    0.7000 C.3     1  UNL1        0.0470
      7  C          7.1640    1.0470   -0.3730 C.2     1  UNL1       -0.0470
      8  C          8.5030    1.2040   -0.7010 C.2     1  UNL1        0.0040
      9  C          6.4560    0.1060   -1.0980 C.2     1  UNL1        0.0040
     10  C          9.1030    0.4670   -1.6960 C.2     1  UNL1        0.0000
     11  C          7.0580   -0.6320   -2.0950 C.2     1  UNL1        0.0000
     12  C          8.3870   -0.4690   -2.4150 C.2     1  UNL1        0.0000
@<TRIPOS>BOND
     1    12    11    2
     2    12    10    1
     3    11     9    1
     4    10     8    2
     5     9     7    2
     6     8     7    1
     7     7     6    1
     8     6     1    1
     9     1     2    1
    10     2     3    2
    11     2     4    1
    12     4     5    1
