@<TRIPOS>MOLECULE
/home/cewinharhar/GITHUB/reincatalyze/data/processed/docking_pred/2023-Apr-25-2248_maxeplen10_maxtrainstep1000_exh16_gamma099_lrac3e-4_lrcr1e-3/0493ae4577fb245076a56c9e7bbbfc493763ce5a_ligand_2.pdbqt
 12 12 0 0 0
SMALL
GASTEIGER

@<TRIPOS>ATOM
      1  C          5.3990    2.9430    0.1270 C.3     1  UNL1        0.1270
      2  C          6.2390    3.8910    0.8800 C.2     1  UNL1        0.3030
      3  O          6.8810    4.7750    0.2500 O.2     1  UNL1       -0.2520
      4  O          6.3480    3.8470    2.2770 O.3     1  UNL1       -0.4810
      5  H          6.9280    4.5350    2.7390 H       1  UNL1        0.2960
      6  C          5.2170    1.6280    0.8640 C.3     1  UNL1        0.0470
      7  C          6.0190    0.5480    0.2330 C.2     1  UNL1       -0.0470
      8  C          6.3350    0.5980   -1.1170 C.2     1  UNL1        0.0040
      9  C          6.4770   -0.5520    0.9350 C.2     1  UNL1        0.0040
     10  C          7.0670   -0.3910   -1.7340 C.2     1  UNL1        0.0000
     11  C          7.2100   -1.5420    0.3160 C.2     1  UNL1        0.0000
     12  C          7.5190   -1.4850   -1.0240 C.2     1  UNL1        0.0000
@<TRIPOS>BOND
     1    10     8    1
     2    10    12    2
     3     8     7    2
     4    12    11    1
     5     1     6    1
     6     1     2    1
     7     7     6    1
     8     7     9    1
     9     3     2    2
    10    11     9    2
    11     2     4    1
    12     4     5    1
