@<TRIPOS>MOLECULE
/home/cewinharhar/GITHUB/reincatalyze/data/processed/docking_pred/2023-Apr-25-2248_maxeplen10_maxtrainstep1000_exh16_gamma099_lrac3e-4_lrcr1e-3/051d9442833557c4466992e4bdada3c2de553c76_ligand_2.pdbqt
 12 12 0 0 0
SMALL
GASTEIGER

@<TRIPOS>ATOM
      1  C          8.4060   -0.6410   -2.1410 C.3     1  UNL1        0.1270
      2  C          8.4310   -1.9120   -2.8860 C.2     1  UNL1        0.3030
      3  O          9.5310   -2.5090   -3.0420 O.2     1  UNL1       -0.2520
      4  O          7.2710   -2.4850   -3.4280 O.3     1  UNL1       -0.4810
      5  H          6.3720   -2.1460   -3.1130 H       1  UNL1        0.2960
      6  C          7.0190   -0.0250   -2.1050 C.3     1  UNL1        0.0470
      7  C          6.4900    0.0150   -0.7170 C.2     1  UNL1       -0.0470
      8  C          5.8390    1.1440   -0.2390 C.2     1  UNL1        0.0040
      9  C          6.6200   -1.0430    0.1640 C.2     1  UNL1        0.0040
     10  C          5.3470    1.2160    1.0440 C.2     1  UNL1        0.0000
     11  C          6.1260   -0.9690    1.4490 C.2     1  UNL1        0.0000
     12  C          5.4830    0.1550    1.9160 C.2     1  UNL1        0.0000
@<TRIPOS>BOND
     1     4     5    1
     2     4     2    1
     3     3     2    2
     4     2     1    1
     5     1     6    1
     6     6     7    1
     7     7     8    2
     8     7     9    1
     9     8    10    1
    10     9    11    2
    11    10    12    2
    12    11    12    1
