@<TRIPOS>MOLECULE
/home/cewinharhar/GITHUB/reincatalyze/data/processed/docking_pred/2023-Apr-25-2248_maxeplen10_maxtrainstep1000_exh16_gamma099_lrac3e-4_lrcr1e-3/051d9442833557c4466992e4bdada3c2de553c76_ligand_2.pdbqt
 12 12 0 0 0
SMALL
GASTEIGER

@<TRIPOS>ATOM
      1  C          8.3340   -1.0630   -1.6950 C.3     1  UNL1        0.1270
      2  C          8.3700   -2.0510   -2.7880 C.2     1  UNL1        0.3030
      3  O          7.2840   -2.4390   -3.2990 O.2     1  UNL1       -0.2520
      4  O          9.5730   -2.5750   -3.2840 O.3     1  UNL1       -0.4810
      5  H          9.5790   -3.5240   -3.6320 H       1  UNL1        0.2960
      6  C          7.4330   -1.5010   -0.5550 C.3     1  UNL1        0.0470
      7  C          6.5980   -0.3710   -0.0710 C.2     1  UNL1       -0.0470
      8  C          6.0860   -0.3700    1.2180 C.2     1  UNL1        0.0040
      9  C          6.2810    0.7180   -0.8630 C.2     1  UNL1        0.0040
     10  C          5.3010    0.6560    1.6920 C.2     1  UNL1        0.0000
     11  C          5.4950    1.7450   -0.3870 C.2     1  UNL1        0.0000
     12  C          4.9900    1.7380    0.8940 C.2     1  UNL1        0.0000
@<TRIPOS>BOND
     1     5     4    1
     2     3     2    2
     3     4     2    1
     4     2     1    1
     5     1     6    1
     6     9    11    1
     7     9     7    2
     8     6     7    1
     9    11    12    2
    10     7     8    1
    11    12    10    1
    12     8    10    2
