@<TRIPOS>MOLECULE
/home/cewinharhar/GITHUB/reincatalyze/data/processed/docking_pred/2023-Apr-25-2248_maxeplen10_maxtrainstep1000_exh16_gamma099_lrac3e-4_lrcr1e-3/051d9442833557c4466992e4bdada3c2de553c76_ligand_2.pdbqt
 12 12 0 0 0
SMALL
GASTEIGER

@<TRIPOS>ATOM
      1  C          8.3000   -1.0830   -1.6720 C.3     1  UNL1        0.1270
      2  C          8.4160   -2.0360   -2.7900 C.2     1  UNL1        0.3030
      3  O          9.5600   -2.4400   -3.1340 O.2     1  UNL1       -0.2520
      4  O          7.2960   -2.5120   -3.4870 O.3     1  UNL1       -0.4810
      5  H          7.2980   -2.4630   -4.4970 H       1  UNL1        0.2960
      6  C          7.3140   -1.5530   -0.6170 C.3     1  UNL1        0.0470
      7  C          6.5200   -0.4150   -0.0850 C.2     1  UNL1       -0.0470
      8  C          6.2190    0.6740   -0.8900 C.2     1  UNL1        0.0040
      9  C          6.0540   -0.3710    1.2160 C.2     1  UNL1        0.0040
     10  C          5.4950    1.7480   -0.4240 C.2     1  UNL1        0.0000
     11  C          5.3290    0.7050    1.6810 C.2     1  UNL1        0.0000
     12  C          5.0350    1.7830    0.8770 C.2     1  UNL1        0.0000
@<TRIPOS>BOND
     1     5     4    1
     2     4     2    1
     3     3     2    2
     4     2     1    1
     5     1     6    1
     6     8    10    1
     7     8     7    2
     8     6     7    1
     9    10    12    2
    10     7     9    1
    11    12    11    1
    12     9    11    2
