@<TRIPOS>MOLECULE
/home/cewinharhar/GITHUB/reincatalyze/data/processed/docking_pred/2023-Apr-25-2248_maxeplen10_maxtrainstep1000_exh16_gamma099_lrac3e-4_lrcr1e-3/051d9442833557c4466992e4bdada3c2de553c76_ligand_2.pdbqt
 12 12 0 0 0
SMALL
GASTEIGER

@<TRIPOS>ATOM
      1  C          5.0030    1.7850    0.7050 C.3     1  UNL1        0.1270
      2  C          4.4870    1.1170    1.9130 C.2     1  UNL1        0.3030
      3  O          5.1840    0.2220    2.4620 O.2     1  UNL1       -0.2520
      4  O          3.2450    1.4450    2.4760 O.3     1  UNL1       -0.4810
      5  H          2.9760    2.4190    2.5200 H       1  UNL1        0.2960
      6  C          6.5130    1.9400    0.7360 C.3     1  UNL1        0.0470
      7  C          7.1530    1.1340   -0.3360 C.2     1  UNL1       -0.0470
      8  C          6.4080    0.2350   -1.0860 C.2     1  UNL1        0.0040
      9  C          8.5000    1.2220   -0.6370 C.2     1  UNL1        0.0040
     10  C          6.9730   -0.5330   -2.0780 C.2     1  UNL1        0.0000
     11  C          9.0640    0.4520   -1.6310 C.2     1  UNL1        0.0000
     12  C          8.3190   -0.4380   -2.3700 C.2     1  UNL1        0.0000
@<TRIPOS>BOND
     1    12    10    2
     2    12    11    1
     3    10     8    1
     4    11     9    2
     5     8     7    2
     6     9     7    1
     7     7     6    1
     8     1     6    1
     9     1     2    1
    10     2     3    2
    11     2     4    1
    12     4     5    1
