@<TRIPOS>MOLECULE
/home/cewinharhar/GITHUB/reincatalyze/data/processed/docking_pred/2023-Apr-25-2248_maxeplen10_maxtrainstep1000_exh16_gamma099_lrac3e-4_lrcr1e-3/051d9442833557c4466992e4bdada3c2de553c76_ligand_2.pdbqt
 12 12 0 0 0
SMALL
GASTEIGER

@<TRIPOS>ATOM
      1  C          8.3910   -0.6020   -2.1850 C.3     1  UNL1        0.1270
      2  C          8.4270   -1.8850   -2.9090 C.2     1  UNL1        0.3030
      3  O          9.5320   -2.4730   -3.0580 O.2     1  UNL1       -0.2520
      4  O          7.2710   -2.4780   -3.4380 O.3     1  UNL1       -0.4810
      5  H          6.6490   -2.9680   -2.8110 H       1  UNL1        0.2960
      6  C          7.0000    0.0090   -2.1690 C.3     1  UNL1        0.0470
      7  C          6.4790    0.1070   -0.7800 C.2     1  UNL1       -0.0470
      8  C          6.5960   -0.9620    0.0970 C.2     1  UNL1        0.0040
      9  C          5.8510    1.2400   -0.2950 C.2     1  UNL1        0.0040
     10  C          6.1140   -0.9060    1.3850 C.2     1  UNL1        0.0000
     11  C          5.3690    1.2940    0.9950 C.2     1  UNL1        0.0000
     12  C          5.4870    0.2290    1.8590 C.2     1  UNL1        0.0000
@<TRIPOS>BOND
     1     4     2    1
     2     4     5    1
     3     3     2    2
     4     2     1    1
     5     1     6    1
     6     6     7    1
     7     7     9    2
     8     7     8    1
     9     9    11    1
    10     8    10    2
    11    11    12    2
    12    10    12    1
