MODEL 1
REMARK VINA RESULT:      -7.3      0.000      0.000
REMARK SMILES O=C(O)CCc1ccccc1
REMARK SMILES IDX 4 1 2 2 1 3 3 4 5 6 6 7 7 8 11 9 8 10 10 11 9 12
REMARK H PARENT 3 5
REMARK Flexibility Score: inf
ROOT
ATOM      1  C   UNL     1       8.406  -0.641  -2.141  1.00  0.00     0.127 C 
ENDROOT
BRANCH   1   2
ATOM      2  C   UNL     1       8.431  -1.912  -2.886  1.00  0.00     0.303 C 
ATOM      3  O   UNL     1       9.531  -2.509  -3.042  1.00  0.00    -0.252 OA
BRANCH   2   4
ATOM      4  O   UNL     1       7.271  -2.485  -3.428  1.00  0.00    -0.481 OA
ATOM      5  H   UNL     1       6.372  -2.146  -3.113  1.00  0.00     0.296 HD
ENDBRANCH   2   4
ENDBRANCH   1   2
BRANCH   1   6
ATOM      6  C   UNL     1       7.019  -0.025  -2.105  1.00  0.00     0.047 C 
BRANCH   6   7
ATOM      7  C   UNL     1       6.490   0.015  -0.717  1.00  0.00    -0.047 A 
ATOM      8  C   UNL     1       5.839   1.144  -0.239  1.00  0.00     0.004 A 
ATOM      9  C   UNL     1       6.620  -1.043   0.164  1.00  0.00     0.004 A 
ATOM     10  C   UNL     1       5.347   1.216   1.044  1.00  0.00     0.000 A 
ATOM     11  C   UNL     1       6.126  -0.969   1.449  1.00  0.00     0.000 A 
ATOM     12  C   UNL     1       5.483   0.155   1.916  1.00  0.00     0.000 A 
ENDBRANCH   6   7
ENDBRANCH   1   6
TORSDOF 4
ENDMDL
MODEL 2
REMARK VINA RESULT:      -7.3      0.083      1.423
REMARK SMILES O=C(O)CCc1ccccc1
REMARK SMILES IDX 4 1 2 2 1 3 3 4 5 6 6 7 7 8 11 9 8 10 10 11 9 12
REMARK H PARENT 3 5
REMARK Flexibility Score: inf
ROOT
ATOM      1  C   UNL     1       8.391  -0.602  -2.185  1.00  0.00     0.127 C 
ENDROOT
BRANCH   1   2
ATOM      2  C   UNL     1       8.427  -1.885  -2.909  1.00  0.00     0.303 C 
ATOM      3  O   UNL     1       9.532  -2.473  -3.058  1.00  0.00    -0.252 OA
BRANCH   2   4
ATOM      4  O   UNL     1       7.271  -2.478  -3.438  1.00  0.00    -0.481 OA
ATOM      5  H   UNL     1       6.649  -2.968  -2.811  1.00  0.00     0.296 HD
ENDBRANCH   2   4
ENDBRANCH   1   2
BRANCH   1   6
ATOM      6  C   UNL     1       7.000   0.009  -2.169  1.00  0.00     0.047 C 
BRANCH   6   7
ATOM      7  C   UNL     1       6.479   0.107  -0.780  1.00  0.00    -0.047 A 
ATOM      8  C   UNL     1       6.596  -0.962   0.097  1.00  0.00     0.004 A 
ATOM      9  C   UNL     1       5.851   1.240  -0.295  1.00  0.00     0.004 A 
ATOM     10  C   UNL     1       6.114  -0.906   1.385  1.00  0.00     0.000 A 
ATOM     11  C   UNL     1       5.369   1.294   0.995  1.00  0.00     0.000 A 
ATOM     12  C   UNL     1       5.487   0.229   1.859  1.00  0.00     0.000 A 
ENDBRANCH   6   7
ENDBRANCH   1   6
TORSDOF 4
ENDMDL
MODEL 3
REMARK VINA RESULT:      -7.1      0.729      1.288
REMARK SMILES O=C(O)CCc1ccccc1
REMARK SMILES IDX 4 1 2 2 1 3 3 4 5 6 6 7 7 8 11 9 8 10 10 11 9 12
REMARK H PARENT 3 5
REMARK Flexibility Score: inf
ROOT
ATOM      1  C   UNL     1       8.300  -1.083  -1.672  1.00  0.00     0.127 C 
ENDROOT
BRANCH   1   2
ATOM      2  C   UNL     1       8.416  -2.036  -2.790  1.00  0.00     0.303 C 
ATOM      3  O   UNL     1       9.560  -2.440  -3.134  1.00  0.00    -0.252 OA
BRANCH   2   4
ATOM      4  O   UNL     1       7.296  -2.512  -3.487  1.00  0.00    -0.481 OA
ATOM      5  H   UNL     1       7.298  -2.463  -4.497  1.00  0.00     0.296 HD
ENDBRANCH   2   4
ENDBRANCH   1   2
BRANCH   1   6
ATOM      6  C   UNL     1       7.314  -1.553  -0.617  1.00  0.00     0.047 C 
BRANCH   6   7
ATOM      7  C   UNL     1       6.520  -0.415  -0.085  1.00  0.00    -0.047 A 
ATOM      8  C   UNL     1       6.219   0.674  -0.890  1.00  0.00     0.004 A 
ATOM      9  C   UNL     1       6.054  -0.371   1.216  1.00  0.00     0.004 A 
ATOM     10  C   UNL     1       5.495   1.748  -0.424  1.00  0.00     0.000 A 
ATOM     11  C   UNL     1       5.329   0.705   1.681  1.00  0.00     0.000 A 
ATOM     12  C   UNL     1       5.035   1.783   0.877  1.00  0.00     0.000 A 
ENDBRANCH   6   7
ENDBRANCH   1   6
TORSDOF 4
ENDMDL
MODEL 4
REMARK VINA RESULT:      -7.1      0.731      1.921
REMARK SMILES O=C(O)CCc1ccccc1
REMARK SMILES IDX 4 1 2 2 1 3 3 4 5 6 6 7 7 8 11 9 8 10 10 11 9 12
REMARK H PARENT 3 5
REMARK Flexibility Score: inf
ROOT
ATOM      1  C   UNL     1       8.334  -1.063  -1.695  1.00  0.00     0.127 C 
ENDROOT
BRANCH   1   2
ATOM      2  C   UNL     1       8.370  -2.051  -2.788  1.00  0.00     0.303 C 
ATOM      3  O   UNL     1       7.284  -2.439  -3.299  1.00  0.00    -0.252 OA
BRANCH   2   4
ATOM      4  O   UNL     1       9.573  -2.575  -3.284  1.00  0.00    -0.481 OA
ATOM      5  H   UNL     1       9.579  -3.524  -3.632  1.00  0.00     0.296 HD
ENDBRANCH   2   4
ENDBRANCH   1   2
BRANCH   1   6
ATOM      6  C   UNL     1       7.433  -1.501  -0.555  1.00  0.00     0.047 C 
BRANCH   6   7
ATOM      7  C   UNL     1       6.598  -0.371  -0.071  1.00  0.00    -0.047 A 
ATOM      8  C   UNL     1       6.086  -0.370   1.218  1.00  0.00     0.004 A 
ATOM      9  C   UNL     1       6.281   0.718  -0.863  1.00  0.00     0.004 A 
ATOM     10  C   UNL     1       5.301   0.656   1.692  1.00  0.00     0.000 A 
ATOM     11  C   UNL     1       5.495   1.745  -0.387  1.00  0.00     0.000 A 
ATOM     12  C   UNL     1       4.990   1.738   0.894  1.00  0.00     0.000 A 
ENDBRANCH   6   7
ENDBRANCH   1   6
TORSDOF 4
ENDMDL
MODEL 5
REMARK VINA RESULT:      -6.8      3.393      5.081
REMARK SMILES O=C(O)CCc1ccccc1
REMARK SMILES IDX 4 1 2 2 1 3 3 4 5 6 6 7 7 8 11 9 8 10 10 11 9 12
REMARK H PARENT 3 5
REMARK Flexibility Score: inf
ROOT
ATOM      1  C   UNL     1       5.003   1.785   0.705  1.00  0.00     0.127 C 
ENDROOT
BRANCH   1   2
ATOM      2  C   UNL     1       4.487   1.117   1.913  1.00  0.00     0.303 C 
ATOM      3  O   UNL     1       5.184   0.222   2.462  1.00  0.00    -0.252 OA
BRANCH   2   4
ATOM      4  O   UNL     1       3.245   1.445   2.476  1.00  0.00    -0.481 OA
ATOM      5  H   UNL     1       2.976   2.419   2.520  1.00  0.00     0.296 HD
ENDBRANCH   2   4
ENDBRANCH   1   2
BRANCH   1   6
ATOM      6  C   UNL     1       6.513   1.940   0.736  1.00  0.00     0.047 C 
BRANCH   6   7
ATOM      7  C   UNL     1       7.153   1.134  -0.336  1.00  0.00    -0.047 A 
ATOM      8  C   UNL     1       6.408   0.235  -1.086  1.00  0.00     0.004 A 
ATOM      9  C   UNL     1       8.500   1.222  -0.637  1.00  0.00     0.004 A 
ATOM     10  C   UNL     1       6.973  -0.533  -2.078  1.00  0.00     0.000 A 
ATOM     11  C   UNL     1       9.064   0.452  -1.631  1.00  0.00     0.000 A 
ATOM     12  C   UNL     1       8.319  -0.438  -2.370  1.00  0.00     0.000 A 
ENDBRANCH   6   7
ENDBRANCH   1   6
TORSDOF 4
ENDMDL
