MODEL 1
REMARK VINA RESULT:      -7.3      0.000      0.000
REMARK SMILES O=C(O)CCc1ccccc1
REMARK SMILES IDX 4 1 2 2 1 3 3 4 5 6 6 7 7 8 11 9 8 10 10 11 9 12
REMARK H PARENT 3 5
REMARK Flexibility Score: inf
ROOT
ATOM      1  C   UNL     1       8.380  -0.691  -2.087  1.00  0.00     0.127 C 
ENDROOT
BRANCH   1   2
ATOM      2  C   UNL     1       8.415  -1.932  -2.882  1.00  0.00     0.303 C 
ATOM      3  O   UNL     1       9.518  -2.519  -3.053  1.00  0.00    -0.252 OA
BRANCH   2   4
ATOM      4  O   UNL     1       7.260  -2.485  -3.455  1.00  0.00    -0.481 OA
ATOM      5  H   UNL     1       6.382  -1.999  -3.337  1.00  0.00     0.296 HD
ENDBRANCH   2   4
ENDBRANCH   1   2
BRANCH   1   6
ATOM      6  C   UNL     1       7.003  -0.053  -2.078  1.00  0.00     0.047 C 
BRANCH   6   7
ATOM      7  C   UNL     1       6.456   0.016  -0.698  1.00  0.00    -0.047 A 
ATOM      8  C   UNL     1       5.800   1.154  -0.253  1.00  0.00     0.004 A 
ATOM      9  C   UNL     1       6.576  -1.023   0.207  1.00  0.00     0.004 A 
ATOM     10  C   UNL     1       5.292   1.253   1.022  1.00  0.00     0.000 A 
ATOM     11  C   UNL     1       6.067  -0.922   1.484  1.00  0.00     0.000 A 
ATOM     12  C   UNL     1       5.418   0.211   1.919  1.00  0.00     0.000 A 
ENDBRANCH   6   7
ENDBRANCH   1   6
TORSDOF 4
ENDMDL
MODEL 2
REMARK VINA RESULT:      -7.2      0.125      1.725
REMARK SMILES O=C(O)CCc1ccccc1
REMARK SMILES IDX 4 1 2 2 1 3 3 4 5 6 6 7 7 8 11 9 8 10 10 11 9 12
REMARK H PARENT 3 5
REMARK Flexibility Score: inf
ROOT
ATOM      1  C   UNL     1       8.354  -0.614  -2.163  1.00  0.00     0.127 C 
ENDROOT
BRANCH   1   2
ATOM      2  C   UNL     1       8.369  -1.888  -2.903  1.00  0.00     0.303 C 
ATOM      3  O   UNL     1       7.274  -2.405  -3.254  1.00  0.00    -0.252 OA
BRANCH   2   4
ATOM      4  O   UNL     1       9.562  -2.548  -3.232  1.00  0.00    -0.481 OA
ATOM      5  H   UNL     1       9.600  -3.554  -3.139  1.00  0.00     0.296 HD
ENDBRANCH   2   4
ENDBRANCH   1   2
BRANCH   1   6
ATOM      6  C   UNL     1       6.978   0.026  -2.150  1.00  0.00     0.047 C 
BRANCH   6   7
ATOM      7  C   UNL     1       6.450   0.126  -0.764  1.00  0.00    -0.047 A 
ATOM      8  C   UNL     1       6.606  -0.924   0.130  1.00  0.00     0.004 A 
ATOM      9  C   UNL     1       5.778   1.241  -0.298  1.00  0.00     0.004 A 
ATOM     10  C   UNL     1       6.120  -0.866   1.416  1.00  0.00     0.000 A 
ATOM     11  C   UNL     1       5.291   1.297   0.991  1.00  0.00     0.000 A 
ATOM     12  C   UNL     1       5.449   0.251   1.872  1.00  0.00     0.000 A 
ENDBRANCH   6   7
ENDBRANCH   1   6
TORSDOF 4
ENDMDL
MODEL 3
REMARK VINA RESULT:      -6.8      3.398      5.081
REMARK SMILES O=C(O)CCc1ccccc1
REMARK SMILES IDX 4 1 2 2 1 3 3 4 5 6 6 7 7 8 11 9 8 10 10 11 9 12
REMARK H PARENT 3 5
REMARK Flexibility Score: inf
ROOT
ATOM      1  C   UNL     1       4.997   1.792   0.699  1.00  0.00     0.127 C 
ENDROOT
BRANCH   1   2
ATOM      2  C   UNL     1       4.473   1.122   1.903  1.00  0.00     0.303 C 
ATOM      3  O   UNL     1       5.159   0.214   2.445  1.00  0.00    -0.252 OA
BRANCH   2   4
ATOM      4  O   UNL     1       3.236   1.461   2.469  1.00  0.00    -0.481 OA
ATOM      5  H   UNL     1       3.157   1.489   3.476  1.00  0.00     0.296 HD
ENDBRANCH   2   4
ENDBRANCH   1   2
BRANCH   1   6
ATOM      6  C   UNL     1       6.510   1.906   0.718  1.00  0.00     0.047 C 
BRANCH   6   7
ATOM      7  C   UNL     1       7.121   1.076  -0.352  1.00  0.00    -0.047 A 
ATOM      8  C   UNL     1       8.471   1.188  -0.652  1.00  0.00     0.004 A 
ATOM      9  C   UNL     1       6.394   0.170  -1.103  1.00  0.00     0.004 A 
ATOM     10  C   UNL     1       9.064   0.441  -1.644  1.00  0.00     0.000 A 
ATOM     11  C   UNL     1       6.990  -0.578  -2.096  1.00  0.00     0.000 A 
ATOM     12  C   UNL     1       8.330  -0.460  -2.389  1.00  0.00     0.000 A 
ENDBRANCH   6   7
ENDBRANCH   1   6
TORSDOF 4
ENDMDL
MODEL 4
REMARK VINA RESULT:      -6.6      1.918      2.646
REMARK SMILES O=C(O)CCc1ccccc1
REMARK SMILES IDX 4 1 2 2 1 3 3 4 5 6 6 7 7 8 11 9 8 10 10 11 9 12
REMARK H PARENT 3 5
REMARK Flexibility Score: inf
ROOT
ATOM      1  C   UNL     1       8.174   0.288  -2.202  1.00  0.00     0.127 C 
ENDROOT
BRANCH   1   2
ATOM      2  C   UNL     1       9.334   0.369  -1.297  1.00  0.00     0.303 C 
ATOM      3  O   UNL     1       9.409  -0.430  -0.324  1.00  0.00    -0.252 OA
BRANCH   2   4
ATOM      4  O   UNL     1      10.361   1.306  -1.480  1.00  0.00    -0.481 OA
ATOM      5  H   UNL     1      11.154   1.282  -0.853  1.00  0.00     0.296 HD
ENDBRANCH   2   4
ENDBRANCH   1   2
BRANCH   1   6
ATOM      6  C   UNL     1       7.044  -0.538  -1.614  1.00  0.00     0.047 C 
BRANCH   6   7
ATOM      7  C   UNL     1       6.302   0.233  -0.582  1.00  0.00    -0.047 A 
ATOM      8  C   UNL     1       6.131  -0.279   0.696  1.00  0.00     0.004 A 
ATOM      9  C   UNL     1       5.742   1.472  -0.832  1.00  0.00     0.004 A 
ATOM     10  C   UNL     1       5.440   0.405   1.671  1.00  0.00     0.000 A 
ATOM     11  C   UNL     1       5.050   2.156   0.145  1.00  0.00     0.000 A 
ATOM     12  C   UNL     1       4.884   1.641   1.410  1.00  0.00     0.000 A 
ENDBRANCH   6   7
ENDBRANCH   1   6
TORSDOF 4
ENDMDL
MODEL 5
REMARK VINA RESULT:      -6.6      1.880      2.933
REMARK SMILES O=C(O)CCc1ccccc1
REMARK SMILES IDX 4 1 2 2 1 3 3 4 5 6 6 7 7 8 11 9 8 10 10 11 9 12
REMARK H PARENT 3 5
REMARK Flexibility Score: inf
ROOT
ATOM      1  C   UNL     1       8.083  -1.675   1.230  1.00  0.00     0.127 C 
ENDROOT
BRANCH   1   2
ATOM      2  C   UNL     1       8.480  -2.819   0.390  1.00  0.00     0.303 C 
ATOM      3  O   UNL     1       9.204  -3.722   0.888  1.00  0.00    -0.252 OA
BRANCH   2   4
ATOM      4  O   UNL     1       8.077  -2.939  -0.948  1.00  0.00    -0.481 OA
ATOM      5  H   UNL     1       7.467  -2.232  -1.334  1.00  0.00     0.296 HD
ENDBRANCH   2   4
ENDBRANCH   1   2
BRANCH   1   6
ATOM      6  C   UNL     1       6.576  -1.557   1.366  1.00  0.00     0.047 C 
BRANCH   6   7
ATOM      7  C   UNL     1       6.091  -0.262   0.822  1.00  0.00    -0.047 A 
ATOM      8  C   UNL     1       6.355   0.097  -0.492  1.00  0.00     0.004 A 
ATOM      9  C   UNL     1       5.374   0.646   1.579  1.00  0.00     0.004 A 
ATOM     10  C   UNL     1       5.930   1.294  -1.022  1.00  0.00     0.000 A 
ATOM     11  C   UNL     1       4.949   1.844   1.047  1.00  0.00     0.000 A 
ATOM     12  C   UNL     1       5.215   2.194  -0.258  1.00  0.00     0.000 A 
ENDBRANCH   6   7
ENDBRANCH   1   6
TORSDOF 4
ENDMDL
