@<TRIPOS>MOLECULE
/home/cewinharhar/GITHUB/reincatalyze/data/processed/docking_pred/2023-Apr-25-2248_maxeplen10_maxtrainstep1000_exh16_gamma099_lrac3e-4_lrcr1e-3/05fc2472135fbee8f2c0d268145bdd055e68f396_ligand_2.pdbqt
 12 12 0 0 0
SMALL
GASTEIGER

@<TRIPOS>ATOM
      1  C          8.1740    0.2880   -2.2020 C.3     1  UNL1        0.1270
      2  C          9.3340    0.3690   -1.2970 C.2     1  UNL1        0.3030
      3  O          9.4090   -0.4300   -0.3240 O.2     1  UNL1       -0.2520
      4  O         10.3610    1.3060   -1.4800 O.3     1  UNL1       -0.4810
      5  H         11.1540    1.2820   -0.8530 H       1  UNL1        0.2960
      6  C          7.0440   -0.5380   -1.6140 C.3     1  UNL1        0.0470
      7  C          6.3020    0.2330   -0.5820 C.2     1  UNL1       -0.0470
      8  C          6.1310   -0.2790    0.6960 C.2     1  UNL1        0.0040
      9  C          5.7420    1.4720   -0.8320 C.2     1  UNL1        0.0040
     10  C          5.4400    0.4050    1.6710 C.2     1  UNL1        0.0000
     11  C          5.0500    2.1560    0.1450 C.2     1  UNL1        0.0000
     12  C          4.8840    1.6410    1.4100 C.2     1  UNL1        0.0000
@<TRIPOS>BOND
     1     1     6    1
     2     1     2    1
     3     6     7    1
     4     4     2    1
     5     4     5    1
     6     2     3    2
     7     9     7    2
     8     9    11    1
     9     7     8    1
    10    11    12    2
    11     8    10    2
    12    12    10    1
