@<TRIPOS>MOLECULE
/home/cewinharhar/GITHUB/reincatalyze/data/processed/docking_pred/2023-Apr-25-2248_maxeplen10_maxtrainstep1000_exh16_gamma099_lrac3e-4_lrcr1e-3/05fc2472135fbee8f2c0d268145bdd055e68f396_ligand_2.pdbqt
 12 12 0 0 0
SMALL
GASTEIGER

@<TRIPOS>ATOM
      1  C          8.0830   -1.6750    1.2300 C.3     1  UNL1        0.1270
      2  C          8.4800   -2.8190    0.3900 C.2     1  UNL1        0.3030
      3  O          9.2040   -3.7220    0.8880 O.2     1  UNL1       -0.2520
      4  O          8.0770   -2.9390   -0.9480 O.3     1  UNL1       -0.4810
      5  H          7.4670   -2.2320   -1.3340 H       1  UNL1        0.2960
      6  C          6.5760   -1.5570    1.3660 C.3     1  UNL1        0.0470
      7  C          6.0910   -0.2620    0.8220 C.2     1  UNL1       -0.0470
      8  C          6.3550    0.0970   -0.4920 C.2     1  UNL1        0.0040
      9  C          5.3740    0.6460    1.5790 C.2     1  UNL1        0.0040
     10  C          5.9300    1.2940   -1.0220 C.2     1  UNL1        0.0000
     11  C          4.9490    1.8440    1.0470 C.2     1  UNL1        0.0000
     12  C          5.2150    2.1940   -0.2580 C.2     1  UNL1        0.0000
@<TRIPOS>BOND
     1     5     4    1
     2    10     8    1
     3    10    12    2
     4     4     2    1
     5     8     7    2
     6    12    11    1
     7     2     3    2
     8     2     1    1
     9     7     6    1
    10     7     9    1
    11    11     9    2
    12     1     6    1
