@<TRIPOS>MOLECULE
/home/cewinharhar/GITHUB/reincatalyze/data/processed/docking_pred/2023-Apr-25-2248_maxeplen10_maxtrainstep1000_exh16_gamma099_lrac3e-4_lrcr1e-3/05fc2472135fbee8f2c0d268145bdd055e68f396_ligand_2.pdbqt
 12 12 0 0 0
SMALL
GASTEIGER

@<TRIPOS>ATOM
      1  C          8.3800   -0.6910   -2.0870 C.3     1  UNL1        0.1270
      2  C          8.4150   -1.9320   -2.8820 C.2     1  UNL1        0.3030
      3  O          9.5180   -2.5190   -3.0530 O.2     1  UNL1       -0.2520
      4  O          7.2600   -2.4850   -3.4550 O.3     1  UNL1       -0.4810
      5  H          6.3820   -1.9990   -3.3370 H       1  UNL1        0.2960
      6  C          7.0030   -0.0530   -2.0780 C.3     1  UNL1        0.0470
      7  C          6.4560    0.0160   -0.6980 C.2     1  UNL1       -0.0470
      8  C          5.8000    1.1540   -0.2530 C.2     1  UNL1        0.0040
      9  C          6.5760   -1.0230    0.2070 C.2     1  UNL1        0.0040
     10  C          5.2920    1.2530    1.0220 C.2     1  UNL1        0.0000
     11  C          6.0670   -0.9220    1.4840 C.2     1  UNL1        0.0000
     12  C          5.4180    0.2110    1.9190 C.2     1  UNL1        0.0000
@<TRIPOS>BOND
     1     4     5    1
     2     4     2    1
     3     3     2    2
     4     2     1    1
     5     1     6    1
     6     6     7    1
     7     7     8    2
     8     7     9    1
     9     8    10    1
    10     9    11    2
    11    10    12    2
    12    11    12    1
