@<TRIPOS>MOLECULE
/home/cewinharhar/GITHUB/reincatalyze/data/processed/docking_pred/2023-Apr-25-2248_maxeplen10_maxtrainstep1000_exh16_gamma099_lrac3e-4_lrcr1e-3/05fc2472135fbee8f2c0d268145bdd055e68f396_ligand_2.pdbqt
 12 12 0 0 0
SMALL
GASTEIGER

@<TRIPOS>ATOM
      1  C          4.9970    1.7920    0.6990 C.3     1  UNL1        0.1270
      2  C          4.4730    1.1220    1.9030 C.2     1  UNL1        0.3030
      3  O          5.1590    0.2140    2.4450 O.2     1  UNL1       -0.2520
      4  O          3.2360    1.4610    2.4690 O.3     1  UNL1       -0.4810
      5  H          3.1570    1.4890    3.4760 H       1  UNL1        0.2960
      6  C          6.5100    1.9060    0.7180 C.3     1  UNL1        0.0470
      7  C          7.1210    1.0760   -0.3520 C.2     1  UNL1       -0.0470
      8  C          8.4710    1.1880   -0.6520 C.2     1  UNL1        0.0040
      9  C          6.3940    0.1700   -1.1030 C.2     1  UNL1        0.0040
     10  C          9.0640    0.4410   -1.6440 C.2     1  UNL1        0.0000
     11  C          6.9900   -0.5780   -2.0960 C.2     1  UNL1        0.0000
     12  C          8.3300   -0.4600   -2.3890 C.2     1  UNL1        0.0000
@<TRIPOS>BOND
     1    12    11    2
     2    12    10    1
     3    11     9    1
     4    10     8    2
     5     9     7    2
     6     8     7    1
     7     7     6    1
     8     1     6    1
     9     1     2    1
    10     2     3    2
    11     2     4    1
    12     4     5    1
