@<TRIPOS>MOLECULE
/home/cewinharhar/GITHUB/reincatalyze/data/processed/docking_pred/2023-Apr-25-2248_maxeplen10_maxtrainstep1000_exh16_gamma099_lrac3e-4_lrcr1e-3/05fc2472135fbee8f2c0d268145bdd055e68f396_ligand_2.pdbqt
 12 12 0 0 0
SMALL
GASTEIGER

@<TRIPOS>ATOM
      1  C          8.3540   -0.6140   -2.1630 C.3     1  UNL1        0.1270
      2  C          8.3690   -1.8880   -2.9030 C.2     1  UNL1        0.3030
      3  O          7.2740   -2.4050   -3.2540 O.2     1  UNL1       -0.2520
      4  O          9.5620   -2.5480   -3.2320 O.3     1  UNL1       -0.4810
      5  H          9.6000   -3.5540   -3.1390 H       1  UNL1        0.2960
      6  C          6.9780    0.0260   -2.1500 C.3     1  UNL1        0.0470
      7  C          6.4500    0.1260   -0.7640 C.2     1  UNL1       -0.0470
      8  C          6.6060   -0.9240    0.1300 C.2     1  UNL1        0.0040
      9  C          5.7780    1.2410   -0.2980 C.2     1  UNL1        0.0040
     10  C          6.1200   -0.8660    1.4160 C.2     1  UNL1        0.0000
     11  C          5.2910    1.2970    0.9910 C.2     1  UNL1        0.0000
     12  C          5.4490    0.2510    1.8720 C.2     1  UNL1        0.0000
@<TRIPOS>BOND
     1     3     2    2
     2     4     5    1
     3     4     2    1
     4     2     1    1
     5     1     6    1
     6     6     7    1
     7     7     9    2
     8     7     8    1
     9     9    11    1
    10     8    10    2
    11    11    12    2
    12    10    12    1
