@<TRIPOS>MOLECULE
/home/cewinharhar/GITHUB/reincatalyze/data/processed/docking_pred/2023-Apr-25-2248_maxeplen10_maxtrainstep1000_exh16_gamma099_lrac3e-4_lrcr1e-3/074f71e156faecc69724e62cc987f5104d3c940c_ligand_2.pdbqt
 12 12 0 0 0
SMALL
GASTEIGER

@<TRIPOS>ATOM
      1  C          5.0290    1.7760    0.7370 C.3     1  UNL1        0.1270
      2  C          4.4760    1.1070    1.9280 C.2     1  UNL1        0.3030
      3  O          5.1430    0.1900    2.4800 O.2     1  UNL1       -0.2520
      4  O          3.2330    1.4580    2.4730 O.3     1  UNL1       -0.4810
      5  H          2.8660    2.3810    2.2860 H       1  UNL1        0.2960
      6  C          6.5430    1.8740    0.7840 C.3     1  UNL1        0.0470
      7  C          7.1620    1.0960   -0.3200 C.2     1  UNL1       -0.0470
      8  C          6.4120    0.1880   -1.0530 C.2     1  UNL1        0.0040
      9  C          8.4950    1.2210   -0.6680 C.2     1  UNL1        0.0040
     10  C          6.9590   -0.5550   -2.0740 C.2     1  UNL1        0.0000
     11  C          9.0410    0.4760   -1.6910 C.2     1  UNL1        0.0000
     12  C          8.2900   -0.4240   -2.4130 C.2     1  UNL1        0.0000
@<TRIPOS>BOND
     1    12    10    2
     2    12    11    1
     3    10     8    1
     4    11     9    2
     5     8     7    2
     6     9     7    1
     7     7     6    1
     8     1     6    1
     9     1     2    1
    10     2     4    1
    11     2     3    2
    12     5     4    1
