MODEL 1
REMARK VINA RESULT:      -7.3      0.000      0.000
REMARK SMILES O=C(O)CCc1ccccc1
REMARK SMILES IDX 4 1 2 2 1 3 3 4 5 6 6 7 7 8 11 9 8 10 10 11 9 12
REMARK H PARENT 3 5
REMARK Flexibility Score: inf
ROOT
ATOM      1  C   UNL     1       8.397  -0.648  -2.111  1.00  0.00     0.127 C 
ENDROOT
BRANCH   1   2
ATOM      2  C   UNL     1       8.419  -1.898  -2.892  1.00  0.00     0.303 C 
ATOM      3  O   UNL     1       9.521  -2.480  -3.084  1.00  0.00    -0.252 OA
BRANCH   2   4
ATOM      4  O   UNL     1       7.254  -2.465  -3.429  1.00  0.00    -0.481 OA
ATOM      5  H   UNL     1       7.139  -3.468  -3.381  1.00  0.00     0.296 HD
ENDBRANCH   2   4
ENDBRANCH   1   2
BRANCH   1   6
ATOM      6  C   UNL     1       7.023  -0.002  -2.100  1.00  0.00     0.047 C 
BRANCH   6   7
ATOM      7  C   UNL     1       6.488   0.090  -0.717  1.00  0.00    -0.047 A 
ATOM      8  C   UNL     1       6.611  -0.977   0.162  1.00  0.00     0.004 A 
ATOM      9  C   UNL     1       5.843   1.215  -0.237  1.00  0.00     0.004 A 
ATOM     10  C   UNL     1       6.118  -0.926   1.446  1.00  0.00     0.000 A 
ATOM     11  C   UNL     1       5.349   1.264   1.049  1.00  0.00     0.000 A 
ATOM     12  C   UNL     1       5.474   0.201   1.914  1.00  0.00     0.000 A 
ENDBRANCH   6   7
ENDBRANCH   1   6
TORSDOF 4
ENDMDL
MODEL 2
REMARK VINA RESULT:      -7.3      0.067      1.422
REMARK SMILES O=C(O)CCc1ccccc1
REMARK SMILES IDX 4 1 2 2 1 3 3 4 5 6 6 7 7 8 11 9 8 10 10 11 9 12
REMARK H PARENT 3 5
REMARK Flexibility Score: inf
ROOT
ATOM      1  C   UNL     1       8.387  -0.591  -2.210  1.00  0.00     0.127 C 
ENDROOT
BRANCH   1   2
ATOM      2  C   UNL     1       8.424  -1.881  -2.922  1.00  0.00     0.303 C 
ATOM      3  O   UNL     1       9.530  -2.470  -3.066  1.00  0.00    -0.252 OA
BRANCH   2   4
ATOM      4  O   UNL     1       7.269  -2.480  -3.445  1.00  0.00    -0.481 OA
ATOM      5  H   UNL     1       7.240  -3.488  -3.522  1.00  0.00     0.296 HD
ENDBRANCH   2   4
ENDBRANCH   1   2
BRANCH   1   6
ATOM      6  C   UNL     1       6.987  -0.008  -2.152  1.00  0.00     0.047 C 
BRANCH   6   7
ATOM      7  C   UNL     1       6.481   0.024  -0.754  1.00  0.00    -0.047 A 
ATOM      8  C   UNL     1       5.836   1.149  -0.261  1.00  0.00     0.004 A 
ATOM      9  C   UNL     1       6.629  -1.038   0.119  1.00  0.00     0.004 A 
ATOM     10  C   UNL     1       5.366   1.213   1.031  1.00  0.00     0.000 A 
ATOM     11  C   UNL     1       6.157  -0.972   1.413  1.00  0.00     0.000 A 
ATOM     12  C   UNL     1       5.520   0.148   1.896  1.00  0.00     0.000 A 
ENDBRANCH   6   7
ENDBRANCH   1   6
TORSDOF 4
ENDMDL
MODEL 3
REMARK VINA RESULT:      -6.8      3.386      5.069
REMARK SMILES O=C(O)CCc1ccccc1
REMARK SMILES IDX 4 1 2 2 1 3 3 4 5 6 6 7 7 8 11 9 8 10 10 11 9 12
REMARK H PARENT 3 5
REMARK Flexibility Score: inf
ROOT
ATOM      1  C   UNL     1       5.029   1.776   0.737  1.00  0.00     0.127 C 
ENDROOT
BRANCH   1   2
ATOM      2  C   UNL     1       4.476   1.107   1.928  1.00  0.00     0.303 C 
ATOM      3  O   UNL     1       5.143   0.190   2.480  1.00  0.00    -0.252 OA
BRANCH   2   4
ATOM      4  O   UNL     1       3.233   1.458   2.473  1.00  0.00    -0.481 OA
ATOM      5  H   UNL     1       2.866   2.381   2.286  1.00  0.00     0.296 HD
ENDBRANCH   2   4
ENDBRANCH   1   2
BRANCH   1   6
ATOM      6  C   UNL     1       6.543   1.874   0.784  1.00  0.00     0.047 C 
BRANCH   6   7
ATOM      7  C   UNL     1       7.162   1.096  -0.320  1.00  0.00    -0.047 A 
ATOM      8  C   UNL     1       6.412   0.188  -1.053  1.00  0.00     0.004 A 
ATOM      9  C   UNL     1       8.495   1.221  -0.668  1.00  0.00     0.004 A 
ATOM     10  C   UNL     1       6.959  -0.555  -2.074  1.00  0.00     0.000 A 
ATOM     11  C   UNL     1       9.041   0.476  -1.691  1.00  0.00     0.000 A 
ATOM     12  C   UNL     1       8.290  -0.424  -2.413  1.00  0.00     0.000 A 
ENDBRANCH   6   7
ENDBRANCH   1   6
TORSDOF 4
ENDMDL
MODEL 4
REMARK VINA RESULT:      -6.6      1.874      2.921
REMARK SMILES O=C(O)CCc1ccccc1
REMARK SMILES IDX 4 1 2 2 1 3 3 4 5 6 6 7 7 8 11 9 8 10 10 11 9 12
REMARK H PARENT 3 5
REMARK Flexibility Score: inf
ROOT
ATOM      1  C   UNL     1       8.077  -1.627   1.147  1.00  0.00     0.127 C 
ENDROOT
BRANCH   1   2
ATOM      2  C   UNL     1       8.429  -2.790   0.314  1.00  0.00     0.303 C 
ATOM      3  O   UNL     1       9.089  -3.733   0.828  1.00  0.00    -0.252 OA
BRANCH   2   4
ATOM      4  O   UNL     1       8.054  -2.885  -1.034  1.00  0.00    -0.481 OA
ATOM      5  H   UNL     1       8.580  -2.361  -1.720  1.00  0.00     0.296 HD
ENDBRANCH   2   4
ENDBRANCH   1   2
BRANCH   1   6
ATOM      6  C   UNL     1       6.575  -1.474   1.314  1.00  0.00     0.047 C 
BRANCH   6   7
ATOM      7  C   UNL     1       6.105  -0.182   0.750  1.00  0.00    -0.047 A 
ATOM      8  C   UNL     1       5.367   0.701   1.525  1.00  0.00     0.004 A 
ATOM      9  C   UNL     1       6.360   0.203  -0.553  1.00  0.00     0.004 A 
ATOM     10  C   UNL     1       4.908   1.900   1.030  1.00  0.00     0.000 A 
ATOM     11  C   UNL     1       5.899   1.404  -1.048  1.00  0.00     0.000 A 
ATOM     12  C   UNL     1       5.167   2.275  -0.273  1.00  0.00     0.000 A 
ENDBRANCH   6   7
ENDBRANCH   1   6
TORSDOF 4
ENDMDL
MODEL 5
REMARK VINA RESULT:      -6.6      1.372      1.811
REMARK SMILES O=C(O)CCc1ccccc1
REMARK SMILES IDX 4 1 2 2 1 3 3 4 5 6 6 7 7 8 11 9 8 10 10 11 9 12
REMARK H PARENT 3 5
REMARK Flexibility Score: inf
ROOT
ATOM      1  C   UNL     1       8.086   0.858  -2.106  1.00  0.00     0.127 C 
ENDROOT
BRANCH   1   2
ATOM      2  C   UNL     1       9.330   0.106  -1.863  1.00  0.00     0.303 C 
ATOM      3  O   UNL     1       9.439  -1.063  -2.324  1.00  0.00    -0.252 OA
BRANCH   2   4
ATOM      4  O   UNL     1      10.401   0.647  -1.137  1.00  0.00    -0.481 OA
ATOM      5  H   UNL     1      11.208   0.983  -1.645  1.00  0.00     0.296 HD
ENDBRANCH   2   4
ENDBRANCH   1   2
BRANCH   1   6
ATOM      6  C   UNL     1       6.850  -0.009  -1.941  1.00  0.00     0.047 C 
BRANCH   6   7
ATOM      7  C   UNL     1       6.340   0.049  -0.547  1.00  0.00    -0.047 A 
ATOM      8  C   UNL     1       6.513  -1.024   0.316  1.00  0.00     0.004 A 
ATOM      9  C   UNL     1       5.670   1.148  -0.040  1.00  0.00     0.004 A 
ATOM     10  C   UNL     1       6.043  -1.005   1.609  1.00  0.00     0.000 A 
ATOM     11  C   UNL     1       5.200   1.165   1.255  1.00  0.00     0.000 A 
ATOM     12  C   UNL     1       5.374   0.096   2.104  1.00  0.00     0.000 A 
ENDBRANCH   6   7
ENDBRANCH   1   6
TORSDOF 4
ENDMDL
