@<TRIPOS>MOLECULE
/home/cewinharhar/GITHUB/reincatalyze/data/processed/docking_pred/2023-Apr-25-2248_maxeplen10_maxtrainstep1000_exh16_gamma099_lrac3e-4_lrcr1e-3/074f71e156faecc69724e62cc987f5104d3c940c_ligand_2.pdbqt
 12 12 0 0 0
SMALL
GASTEIGER

@<TRIPOS>ATOM
      1  C          8.0860    0.8580   -2.1060 C.3     1  UNL1        0.1270
      2  C          9.3300    0.1060   -1.8630 C.2     1  UNL1        0.3030
      3  O          9.4390   -1.0630   -2.3240 O.2     1  UNL1       -0.2520
      4  O         10.4010    0.6470   -1.1370 O.3     1  UNL1       -0.4810
      5  H         11.2080    0.9830   -1.6450 H       1  UNL1        0.2960
      6  C          6.8500   -0.0090   -1.9410 C.3     1  UNL1        0.0470
      7  C          6.3400    0.0490   -0.5470 C.2     1  UNL1       -0.0470
      8  C          6.5130   -1.0240    0.3160 C.2     1  UNL1        0.0040
      9  C          5.6700    1.1480   -0.0400 C.2     1  UNL1        0.0040
     10  C          6.0430   -1.0050    1.6090 C.2     1  UNL1        0.0000
     11  C          5.2000    1.1650    1.2550 C.2     1  UNL1        0.0000
     12  C          5.3740    0.0960    2.1040 C.2     1  UNL1        0.0000
@<TRIPOS>BOND
     1     3     2    2
     2     1     6    1
     3     1     2    1
     4     6     7    1
     5     2     4    1
     6     5     4    1
     7     7     9    2
     8     7     8    1
     9     9    11    1
    10     8    10    2
    11    11    12    2
    12    10    12    1
