@<TRIPOS>MOLECULE
/home/cewinharhar/GITHUB/reincatalyze/data/processed/docking_pred/2023-Apr-25-2248_maxeplen10_maxtrainstep1000_exh16_gamma099_lrac3e-4_lrcr1e-3/074f71e156faecc69724e62cc987f5104d3c940c_ligand_2.pdbqt
 12 12 0 0 0
SMALL
GASTEIGER

@<TRIPOS>ATOM
      1  C          8.0770   -1.6270    1.1470 C.3     1  UNL1        0.1270
      2  C          8.4290   -2.7900    0.3140 C.2     1  UNL1        0.3030
      3  O          9.0890   -3.7330    0.8280 O.2     1  UNL1       -0.2520
      4  O          8.0540   -2.8850   -1.0340 O.3     1  UNL1       -0.4810
      5  H          8.5800   -2.3610   -1.7200 H       1  UNL1        0.2960
      6  C          6.5750   -1.4740    1.3140 C.3     1  UNL1        0.0470
      7  C          6.1050   -0.1820    0.7500 C.2     1  UNL1       -0.0470
      8  C          5.3670    0.7010    1.5250 C.2     1  UNL1        0.0040
      9  C          6.3600    0.2030   -0.5530 C.2     1  UNL1        0.0040
     10  C          4.9080    1.9000    1.0300 C.2     1  UNL1        0.0000
     11  C          5.8990    1.4040   -1.0480 C.2     1  UNL1        0.0000
     12  C          5.1670    2.2750   -0.2730 C.2     1  UNL1        0.0000
@<TRIPOS>BOND
     1     5     4    1
     2    11     9    1
     3    11    12    2
     4     4     2    1
     5     9     7    2
     6    12    10    1
     7     2     3    2
     8     2     1    1
     9     7     6    1
    10     7     8    1
    11    10     8    2
    12     1     6    1
