@<TRIPOS>MOLECULE
/home/cewinharhar/GITHUB/reincatalyze/data/processed/docking_pred/2023-Apr-25-2248_maxeplen10_maxtrainstep1000_exh16_gamma099_lrac3e-4_lrcr1e-3/088b63c47bd4d7a6949fea46fb2e227d24226938_ligand_2.pdbqt
 12 12 0 0 0
SMALL
GASTEIGER

@<TRIPOS>ATOM
      1  C          5.0390    1.7920    0.7360 C.3     1  UNL1        0.1270
      2  C          4.4920    1.1210    1.9280 C.2     1  UNL1        0.3030
      3  O          5.1690    0.2150    2.4870 O.2     1  UNL1       -0.2520
      4  O          3.2410    1.4560    2.4660 O.3     1  UNL1       -0.4810
      5  H          2.7560    2.2630    2.0970 H       1  UNL1        0.2960
      6  C          6.5560    1.8640    0.7640 C.3     1  UNL1        0.0470
      7  C          7.1480    1.0590   -0.3370 C.2     1  UNL1       -0.0470
      8  C          8.4900    1.1870   -0.6650 C.2     1  UNL1        0.0040
      9  C          6.4100    0.1620   -1.0880 C.2     1  UNL1        0.0040
     10  C          9.0650    0.4640   -1.6840 C.2     1  UNL1        0.0000
     11  C          6.9880   -0.5620   -2.1090 C.2     1  UNL1        0.0000
     12  C          8.3200   -0.4280   -2.4290 C.2     1  UNL1        0.0000
@<TRIPOS>BOND
     1    12    11    2
     2    12    10    1
     3    11     9    1
     4    10     8    2
     5     9     7    2
     6     8     7    1
     7     7     6    1
     8     1     6    1
     9     1     2    1
    10     2     4    1
    11     2     3    2
    12     5     4    1
