@<TRIPOS>MOLECULE
/home/cewinharhar/GITHUB/reincatalyze/data/processed/docking_pred/2023-Apr-25-2248_maxeplen10_maxtrainstep1000_exh16_gamma099_lrac3e-4_lrcr1e-3/088b63c47bd4d7a6949fea46fb2e227d24226938_ligand_2.pdbqt
 12 12 0 0 0
SMALL
GASTEIGER

@<TRIPOS>ATOM
      1  C          8.4000   -0.6090   -2.1920 C.3     1  UNL1        0.1270
      2  C          8.4310   -1.8930   -2.9150 C.2     1  UNL1        0.3030
      3  O          9.5360   -2.4780   -3.0760 O.2     1  UNL1       -0.2520
      4  O          7.2710   -2.4890   -3.4310 O.3     1  UNL1       -0.4810
      5  H          6.9820   -3.3850   -3.0600 H       1  UNL1        0.2960
      6  C          7.0140    0.0100   -2.1820 C.3     1  UNL1        0.0470
      7  C          6.4900    0.1200   -0.7950 C.2     1  UNL1       -0.0470
      8  C          6.5850   -0.9490    0.0840 C.2     1  UNL1        0.0040
      9  C          5.8810    1.2650   -0.3140 C.2     1  UNL1        0.0040
     10  C          6.1000   -0.8820    1.3700 C.2     1  UNL1        0.0000
     11  C          5.3960    1.3300    0.9750 C.2     1  UNL1        0.0000
     12  C          5.4930    0.2650    1.8410 C.2     1  UNL1        0.0000
@<TRIPOS>BOND
     1     4     5    1
     2     4     2    1
     3     3     2    2
     4     2     1    1
     5     1     6    1
     6     6     7    1
     7     7     9    2
     8     7     8    1
     9     9    11    1
    10     8    10    2
    11    11    12    2
    12    10    12    1
