@<TRIPOS>MOLECULE
/home/cewinharhar/GITHUB/reincatalyze/data/processed/docking_pred/2023-Apr-25-2248_maxeplen10_maxtrainstep1000_exh16_gamma099_lrac3e-4_lrcr1e-3/088b63c47bd4d7a6949fea46fb2e227d24226938_ligand_2.pdbqt
 12 12 0 0 0
SMALL
GASTEIGER

@<TRIPOS>ATOM
      1  C          8.4320   -0.6480   -2.1180 C.3     1  UNL1        0.1270
      2  C          8.4230   -1.9090   -2.8810 C.2     1  UNL1        0.3030
      3  O          7.3170   -2.4210   -3.2050 O.2     1  UNL1       -0.2520
      4  O          9.6040   -2.5610   -3.2630 O.3     1  UNL1       -0.4810
      5  H         10.2150   -2.9170   -2.5400 H       1  UNL1        0.2960
      6  C          7.0760    0.0350   -2.1220 C.3     1  UNL1        0.0470
      7  C          6.5060    0.0940   -0.7510 C.2     1  UNL1       -0.0470
      8  C          5.8330    1.2260   -0.3130 C.2     1  UNL1        0.0040
      9  C          6.6180   -0.9470    0.1520 C.2     1  UNL1        0.0040
     10  C          5.3030    1.3160    0.9540 C.2     1  UNL1        0.0000
     11  C          6.0870   -0.8550    1.4210 C.2     1  UNL1        0.0000
     12  C          5.4220    0.2710    1.8490 C.2     1  UNL1        0.0000
@<TRIPOS>BOND
     1     4     2    1
     2     4     5    1
     3     3     2    2
     4     2     1    1
     5     6     1    1
     6     6     7    1
     7     7     8    2
     8     7     9    1
     9     8    10    1
    10     9    11    2
    11    10    12    2
    12    11    12    1
