@<TRIPOS>MOLECULE
/home/cewinharhar/GITHUB/reincatalyze/data/processed/docking_pred/2023-Apr-25-2248_maxeplen10_maxtrainstep1000_exh16_gamma099_lrac3e-4_lrcr1e-3/088b63c47bd4d7a6949fea46fb2e227d24226938_ligand_2.pdbqt
 12 12 0 0 0
SMALL
GASTEIGER

@<TRIPOS>ATOM
      1  C          8.3530   -1.7820    1.0300 C.3     1  UNL1        0.1270
      2  C          8.7710   -3.0720    0.4540 C.2     1  UNL1        0.3030
      3  O          9.5200   -3.8300    1.1280 O.2     1  UNL1       -0.2520
      4  O          8.3640   -3.4870   -0.8220 O.3     1  UNL1       -0.4810
      5  H          9.0630   -3.8480   -1.4590 H       1  UNL1        0.2960
      6  C          6.8600   -1.7320    1.3010 C.3     1  UNL1        0.0470
      7  C          6.2770   -0.4450    0.8400 C.2     1  UNL1       -0.0470
      8  C          6.5100    0.0160   -0.4480 C.2     1  UNL1        0.0040
      9  C          5.4950    0.3570    1.6520 C.2     1  UNL1        0.0040
     10  C          5.9940    1.2080   -0.9020 C.2     1  UNL1        0.0000
     11  C          4.9790    1.5500    1.1960 C.2     1  UNL1        0.0000
     12  C          5.2150    2.0010   -0.0830 C.2     1  UNL1        0.0000
@<TRIPOS>BOND
     1     5     4    1
     2    10     8    1
     3    10    12    2
     4     4     2    1
     5     8     7    2
     6    12    11    1
     7     2     1    1
     8     2     3    2
     9     7     6    1
    10     7     9    1
    11     1     6    1
    12    11     9    2
