MODEL 1
REMARK VINA RESULT:      -7.3      0.000      0.000
REMARK SMILES O=C(O)CCc1ccccc1
REMARK SMILES IDX 4 1 2 2 1 3 3 4 5 6 6 7 7 8 11 9 8 10 10 11 9 12
REMARK H PARENT 3 5
REMARK Flexibility Score: inf
ROOT
ATOM      1  C   UNL     1       8.400  -0.609  -2.192  1.00  0.00     0.127 C 
ENDROOT
BRANCH   1   2
ATOM      2  C   UNL     1       8.431  -1.893  -2.915  1.00  0.00     0.303 C 
ATOM      3  O   UNL     1       9.536  -2.478  -3.076  1.00  0.00    -0.252 OA
BRANCH   2   4
ATOM      4  O   UNL     1       7.271  -2.489  -3.431  1.00  0.00    -0.481 OA
ATOM      5  H   UNL     1       6.982  -3.385  -3.060  1.00  0.00     0.296 HD
ENDBRANCH   2   4
ENDBRANCH   1   2
BRANCH   1   6
ATOM      6  C   UNL     1       7.014   0.010  -2.182  1.00  0.00     0.047 C 
BRANCH   6   7
ATOM      7  C   UNL     1       6.490   0.120  -0.795  1.00  0.00    -0.047 A 
ATOM      8  C   UNL     1       6.585  -0.949   0.084  1.00  0.00     0.004 A 
ATOM      9  C   UNL     1       5.881   1.265  -0.314  1.00  0.00     0.004 A 
ATOM     10  C   UNL     1       6.100  -0.882   1.370  1.00  0.00     0.000 A 
ATOM     11  C   UNL     1       5.396   1.330   0.975  1.00  0.00     0.000 A 
ATOM     12  C   UNL     1       5.493   0.265   1.841  1.00  0.00     0.000 A 
ENDBRANCH   6   7
ENDBRANCH   1   6
TORSDOF 4
ENDMDL
MODEL 2
REMARK VINA RESULT:      -7.3      0.117      1.723
REMARK SMILES O=C(O)CCc1ccccc1
REMARK SMILES IDX 4 1 2 2 1 3 3 4 5 6 6 7 7 8 11 9 8 10 10 11 9 12
REMARK H PARENT 3 5
REMARK Flexibility Score: inf
ROOT
ATOM      1  C   UNL     1       8.432  -0.648  -2.118  1.00  0.00     0.127 C 
ENDROOT
BRANCH   1   2
ATOM      2  C   UNL     1       8.423  -1.909  -2.881  1.00  0.00     0.303 C 
ATOM      3  O   UNL     1       7.317  -2.421  -3.205  1.00  0.00    -0.252 OA
BRANCH   2   4
ATOM      4  O   UNL     1       9.604  -2.561  -3.263  1.00  0.00    -0.481 OA
ATOM      5  H   UNL     1      10.215  -2.917  -2.540  1.00  0.00     0.296 HD
ENDBRANCH   2   4
ENDBRANCH   1   2
BRANCH   1   6
ATOM      6  C   UNL     1       7.076   0.035  -2.122  1.00  0.00     0.047 C 
BRANCH   6   7
ATOM      7  C   UNL     1       6.506   0.094  -0.751  1.00  0.00    -0.047 A 
ATOM      8  C   UNL     1       5.833   1.226  -0.313  1.00  0.00     0.004 A 
ATOM      9  C   UNL     1       6.618  -0.947   0.152  1.00  0.00     0.004 A 
ATOM     10  C   UNL     1       5.303   1.316   0.954  1.00  0.00     0.000 A 
ATOM     11  C   UNL     1       6.087  -0.855   1.421  1.00  0.00     0.000 A 
ATOM     12  C   UNL     1       5.422   0.271   1.849  1.00  0.00     0.000 A 
ENDBRANCH   6   7
ENDBRANCH   1   6
TORSDOF 4
ENDMDL
MODEL 3
REMARK VINA RESULT:      -6.8      3.387      5.085
REMARK SMILES O=C(O)CCc1ccccc1
REMARK SMILES IDX 4 1 2 2 1 3 3 4 5 6 6 7 7 8 11 9 8 10 10 11 9 12
REMARK H PARENT 3 5
REMARK Flexibility Score: inf
ROOT
ATOM      1  C   UNL     1       5.039   1.792   0.736  1.00  0.00     0.127 C 
ENDROOT
BRANCH   1   2
ATOM      2  C   UNL     1       4.492   1.121   1.928  1.00  0.00     0.303 C 
ATOM      3  O   UNL     1       5.169   0.215   2.487  1.00  0.00    -0.252 OA
BRANCH   2   4
ATOM      4  O   UNL     1       3.241   1.456   2.466  1.00  0.00    -0.481 OA
ATOM      5  H   UNL     1       2.756   2.263   2.097  1.00  0.00     0.296 HD
ENDBRANCH   2   4
ENDBRANCH   1   2
BRANCH   1   6
ATOM      6  C   UNL     1       6.556   1.864   0.764  1.00  0.00     0.047 C 
BRANCH   6   7
ATOM      7  C   UNL     1       7.148   1.059  -0.337  1.00  0.00    -0.047 A 
ATOM      8  C   UNL     1       8.490   1.187  -0.665  1.00  0.00     0.004 A 
ATOM      9  C   UNL     1       6.410   0.162  -1.088  1.00  0.00     0.004 A 
ATOM     10  C   UNL     1       9.065   0.464  -1.684  1.00  0.00     0.000 A 
ATOM     11  C   UNL     1       6.988  -0.562  -2.109  1.00  0.00     0.000 A 
ATOM     12  C   UNL     1       8.320  -0.428  -2.429  1.00  0.00     0.000 A 
ENDBRANCH   6   7
ENDBRANCH   1   6
TORSDOF 4
ENDMDL
MODEL 4
REMARK VINA RESULT:      -6.7      1.950      2.673
REMARK SMILES O=C(O)CCc1ccccc1
REMARK SMILES IDX 4 1 2 2 1 3 3 4 5 6 6 7 7 8 11 9 8 10 10 11 9 12
REMARK H PARENT 3 5
REMARK Flexibility Score: inf
ROOT
ATOM      1  C   UNL     1       8.284   0.203  -2.160  1.00  0.00     0.127 C 
ENDROOT
BRANCH   1   2
ATOM      2  C   UNL     1       9.409   0.383  -1.225  1.00  0.00     0.303 C 
ATOM      3  O   UNL     1       9.497  -0.373  -0.220  1.00  0.00    -0.252 OA
BRANCH   2   4
ATOM      4  O   UNL     1      10.390   1.367  -1.416  1.00  0.00    -0.481 OA
ATOM      5  H   UNL     1      11.312   1.080  -1.715  1.00  0.00     0.296 HD
ENDBRANCH   2   4
ENDBRANCH   1   2
BRANCH   1   6
ATOM      6  C   UNL     1       7.165  -0.628  -1.558  1.00  0.00     0.047 C 
BRANCH   6   7
ATOM      7  C   UNL     1       6.375   0.170  -0.584  1.00  0.00    -0.047 A 
ATOM      8  C   UNL     1       5.840   1.398  -0.944  1.00  0.00     0.004 A 
ATOM      9  C   UNL     1       6.140  -0.251   0.712  1.00  0.00     0.004 A 
ATOM     10  C   UNL     1       5.112   2.165  -0.063  1.00  0.00     0.000 A 
ATOM     11  C   UNL     1       5.411   0.518   1.594  1.00  0.00     0.000 A 
ATOM     12  C   UNL     1       4.884   1.737   1.229  1.00  0.00     0.000 A 
ENDBRANCH   6   7
ENDBRANCH   1   6
TORSDOF 4
ENDMDL
MODEL 5
REMARK VINA RESULT:      -6.5      2.017      2.923
REMARK SMILES O=C(O)CCc1ccccc1
REMARK SMILES IDX 4 1 2 2 1 3 3 4 5 6 6 7 7 8 11 9 8 10 10 11 9 12
REMARK H PARENT 3 5
REMARK Flexibility Score: inf
ROOT
ATOM      1  C   UNL     1       8.353  -1.782   1.030  1.00  0.00     0.127 C 
ENDROOT
BRANCH   1   2
ATOM      2  C   UNL     1       8.771  -3.072   0.454  1.00  0.00     0.303 C 
ATOM      3  O   UNL     1       9.520  -3.830   1.128  1.00  0.00    -0.252 OA
BRANCH   2   4
ATOM      4  O   UNL     1       8.364  -3.487  -0.822  1.00  0.00    -0.481 OA
ATOM      5  H   UNL     1       9.063  -3.848  -1.459  1.00  0.00     0.296 HD
ENDBRANCH   2   4
ENDBRANCH   1   2
BRANCH   1   6
ATOM      6  C   UNL     1       6.860  -1.732   1.301  1.00  0.00     0.047 C 
BRANCH   6   7
ATOM      7  C   UNL     1       6.277  -0.445   0.840  1.00  0.00    -0.047 A 
ATOM      8  C   UNL     1       6.510   0.016  -0.448  1.00  0.00     0.004 A 
ATOM      9  C   UNL     1       5.495   0.357   1.652  1.00  0.00     0.004 A 
ATOM     10  C   UNL     1       5.994   1.208  -0.902  1.00  0.00     0.000 A 
ATOM     11  C   UNL     1       4.979   1.550   1.196  1.00  0.00     0.000 A 
ATOM     12  C   UNL     1       5.215   2.001  -0.083  1.00  0.00     0.000 A 
ENDBRANCH   6   7
ENDBRANCH   1   6
TORSDOF 4
ENDMDL
