@<TRIPOS>MOLECULE
/home/cewinharhar/GITHUB/reincatalyze/data/processed/docking_pred/2023-Apr-25-2248_maxeplen10_maxtrainstep1000_exh16_gamma099_lrac3e-4_lrcr1e-3/088b63c47bd4d7a6949fea46fb2e227d24226938_ligand_2.pdbqt
 12 12 0 0 0
SMALL
GASTEIGER

@<TRIPOS>ATOM
      1  C          8.2840    0.2030   -2.1600 C.3     1  UNL1        0.1270
      2  C          9.4090    0.3830   -1.2250 C.2     1  UNL1        0.3030
      3  O          9.4970   -0.3730   -0.2200 O.2     1  UNL1       -0.2520
      4  O         10.3900    1.3670   -1.4160 O.3     1  UNL1       -0.4810
      5  H         11.3120    1.0800   -1.7150 H       1  UNL1        0.2960
      6  C          7.1650   -0.6280   -1.5580 C.3     1  UNL1        0.0470
      7  C          6.3750    0.1700   -0.5840 C.2     1  UNL1       -0.0470
      8  C          5.8400    1.3980   -0.9440 C.2     1  UNL1        0.0040
      9  C          6.1400   -0.2510    0.7120 C.2     1  UNL1        0.0040
     10  C          5.1120    2.1650   -0.0630 C.2     1  UNL1        0.0000
     11  C          5.4110    0.5180    1.5940 C.2     1  UNL1        0.0000
     12  C          4.8840    1.7370    1.2290 C.2     1  UNL1        0.0000
@<TRIPOS>BOND
     1     1     6    1
     2     1     2    1
     3     5     4    1
     4     6     7    1
     5     4     2    1
     6     2     3    2
     7     8     7    2
     8     8    10    1
     9     7     9    1
    10    10    12    2
    11     9    11    2
    12    12    11    1
