@<TRIPOS>MOLECULE
/home/cewinharhar/GITHUB/reincatalyze/data/processed/docking_pred/2023-Apr-25-2248_maxeplen10_maxtrainstep1000_exh16_gamma099_lrac3e-4_lrcr1e-3/08a74a7e320cd1ecb560e86b752820c061dfae11_ligand_2.pdbqt
 12 12 0 0 0
SMALL
GASTEIGER

@<TRIPOS>ATOM
      1  C          8.5420    0.7050   -1.6340 C.3     1  UNL1        0.1270
      2  C          9.6890    0.2950   -0.8030 C.2     1  UNL1        0.3030
      3  O          9.4990   -0.5120    0.1470 O.2     1  UNL1       -0.2520
      4  O         10.9870    0.7710   -1.0340 O.3     1  UNL1       -0.4810
      5  H         11.2190    1.7090   -0.7350 H       1  UNL1        0.2960
      6  C          7.3420   -0.2050   -1.4440 C.3     1  UNL1        0.0470
      7  C          6.4420    0.3140   -0.3810 C.2     1  UNL1       -0.0470
      8  C          5.7990    1.5340   -0.5330 C.2     1  UNL1        0.0040
      9  C          6.2070   -0.3670    0.7990 C.2     1  UNL1        0.0040
     10  C          4.9680    2.0470    0.4370 C.2     1  UNL1        0.0000
     11  C          5.3740    0.1480    1.7690 C.2     1  UNL1        0.0000
     12  C          4.7400    1.3600    1.6120 C.2     1  UNL1        0.0000
@<TRIPOS>BOND
     1     1     6    1
     2     1     2    1
     3     6     7    1
     4     4     2    1
     5     4     5    1
     6     2     3    2
     7     8     7    2
     8     8    10    1
     9     7     9    1
    10    10    12    2
    11     9    11    2
    12    12    11    1
