@<TRIPOS>MOLECULE
/home/cewinharhar/GITHUB/reincatalyze/data/processed/docking_pred/2023-Apr-25-2248_maxeplen10_maxtrainstep1000_exh16_gamma099_lrac3e-4_lrcr1e-3/08a74a7e320cd1ecb560e86b752820c061dfae11_ligand_2.pdbqt
 12 12 0 0 0
SMALL
GASTEIGER

@<TRIPOS>ATOM
      1  C          8.3900   -0.7880   -1.9640 C.3     1  UNL1        0.1270
      2  C          8.4010   -1.9620   -2.8550 C.2     1  UNL1        0.3030
      3  O          7.3030   -2.4320   -3.2610 O.2     1  UNL1       -0.2520
      4  O          9.5920   -2.5750   -3.2700 O.3     1  UNL1       -0.4810
      5  H          9.8060   -3.4990   -2.9210 H       1  UNL1        0.2960
      6  C          7.0890   -0.0100   -2.0550 C.3     1  UNL1        0.0470
      7  C          6.4650    0.1410   -0.7140 C.2     1  UNL1       -0.0470
      8  C          5.7690    1.2960   -0.3840 C.2     1  UNL1        0.0040
      9  C          6.5470   -0.8320    0.2640 C.2     1  UNL1        0.0040
     10  C          5.1890    1.4710    0.8510 C.2     1  UNL1        0.0000
     11  C          5.9650   -0.6550    1.5010 C.2     1  UNL1        0.0000
     12  C          5.2780    0.4930    1.8210 C.2     1  UNL1        0.0000
@<TRIPOS>BOND
     1     4     5    1
     2     4     2    1
     3     3     2    2
     4     2     1    1
     5     6     1    1
     6     6     7    1
     7     7     8    2
     8     7     9    1
     9     8    10    1
    10     9    11    2
    11    10    12    2
    12    11    12    1
