@<TRIPOS>MOLECULE
/home/cewinharhar/GITHUB/reincatalyze/data/processed/docking_pred/2023-Apr-25-2248_maxeplen10_maxtrainstep1000_exh16_gamma099_lrac3e-4_lrcr1e-3/08a74a7e320cd1ecb560e86b752820c061dfae11_ligand_2.pdbqt
 12 12 0 0 0
SMALL
GASTEIGER

@<TRIPOS>ATOM
      1  C          8.4090   -0.6900   -2.0890 C.3     1  UNL1        0.1270
      2  C          8.4390   -1.9270   -2.8900 C.2     1  UNL1        0.3030
      3  O          9.5450   -2.5000   -3.0890 O.2     1  UNL1       -0.2520
      4  O          7.2790   -2.4910   -3.4400 O.3     1  UNL1       -0.4810
      5  H          6.5750   -1.8740   -3.8210 H       1  UNL1        0.2960
      6  C          7.0460   -0.0210   -2.1190 C.3     1  UNL1        0.0470
      7  C          6.4840    0.1030   -0.7490 C.2     1  UNL1       -0.0470
      8  C          6.6020   -0.9370    0.1610 C.2     1  UNL1        0.0040
      9  C          5.8150    1.2330   -0.3140 C.2     1  UNL1        0.0040
     10  C          6.0820   -0.8580    1.4330 C.2     1  UNL1        0.0000
     11  C          5.2960    1.3110    0.9600 C.2     1  UNL1        0.0000
     12  C          5.4160    0.2740    1.8570 C.2     1  UNL1        0.0000
@<TRIPOS>BOND
     1     5     4    1
     2     4     2    1
     3     3     2    2
     4     2     1    1
     5     6     1    1
     6     6     7    1
     7     7     9    2
     8     7     8    1
     9     9    11    1
    10     8    10    2
    11    11    12    2
    12    10    12    1
