@<TRIPOS>MOLECULE
/home/cewinharhar/GITHUB/reincatalyze/data/processed/docking_pred/2023-Apr-25-2248_maxeplen10_maxtrainstep1000_exh16_gamma099_lrac3e-4_lrcr1e-3/08a74a7e320cd1ecb560e86b752820c061dfae11_ligand_2.pdbqt
 12 12 0 0 0
SMALL
GASTEIGER

@<TRIPOS>ATOM
      1  C          8.1260   -1.6240    1.1040 C.3     1  UNL1        0.1270
      2  C          8.4580   -2.8030    0.2840 C.2     1  UNL1        0.3030
      3  O          9.1100   -3.7480    0.8060 O.2     1  UNL1       -0.2520
      4  O          8.0730   -2.9110   -1.0600 O.3     1  UNL1       -0.4810
      5  H          7.4270   -3.6440   -1.3200 H       1  UNL1        0.2960
      6  C          6.6300   -1.4800    1.3220 C.3     1  UNL1        0.0470
      7  C          6.1320   -0.1970    0.7620 C.2     1  UNL1       -0.0470
      8  C          5.3860    0.6740    1.5430 C.2     1  UNL1        0.0040
      9  C          6.3680    0.1920   -0.5440 C.2     1  UNL1        0.0040
     10  C          4.9020    1.8650    1.0510 C.2     1  UNL1        0.0000
     11  C          5.8830    1.3850   -1.0350 C.2     1  UNL1        0.0000
     12  C          5.1420    2.2430   -0.2550 C.2     1  UNL1        0.0000
@<TRIPOS>BOND
     1     5     4    1
     2     4     2    1
     3    11     9    1
     4    11    12    2
     5     9     7    2
     6    12    10    1
     7     2     3    2
     8     2     1    1
     9     7     6    1
    10     7     8    1
    11    10     8    2
    12     1     6    1
