MODEL 1
REMARK VINA RESULT:      -7.3      0.000      0.000
REMARK SMILES O=C(O)CCc1ccccc1
REMARK SMILES IDX 4 1 2 2 1 3 3 4 5 6 6 7 7 8 11 9 8 10 10 11 9 12
REMARK H PARENT 3 5
REMARK Flexibility Score: inf
ROOT
ATOM      1  C   UNL     1       8.409  -0.690  -2.089  1.00  0.00     0.127 C 
ENDROOT
BRANCH   1   2
ATOM      2  C   UNL     1       8.439  -1.927  -2.890  1.00  0.00     0.303 C 
ATOM      3  O   UNL     1       9.545  -2.500  -3.089  1.00  0.00    -0.252 OA
BRANCH   2   4
ATOM      4  O   UNL     1       7.279  -2.491  -3.440  1.00  0.00    -0.481 OA
ATOM      5  H   UNL     1       6.575  -1.874  -3.821  1.00  0.00     0.296 HD
ENDBRANCH   2   4
ENDBRANCH   1   2
BRANCH   1   6
ATOM      6  C   UNL     1       7.046  -0.021  -2.119  1.00  0.00     0.047 C 
BRANCH   6   7
ATOM      7  C   UNL     1       6.484   0.103  -0.749  1.00  0.00    -0.047 A 
ATOM      8  C   UNL     1       6.602  -0.937   0.161  1.00  0.00     0.004 A 
ATOM      9  C   UNL     1       5.815   1.233  -0.314  1.00  0.00     0.004 A 
ATOM     10  C   UNL     1       6.082  -0.858   1.433  1.00  0.00     0.000 A 
ATOM     11  C   UNL     1       5.296   1.311   0.960  1.00  0.00     0.000 A 
ATOM     12  C   UNL     1       5.416   0.274   1.857  1.00  0.00     0.000 A 
ENDBRANCH   6   7
ENDBRANCH   1   6
TORSDOF 4
ENDMDL
MODEL 2
REMARK VINA RESULT:      -7.3      0.173      1.728
REMARK SMILES O=C(O)CCc1ccccc1
REMARK SMILES IDX 4 1 2 2 1 3 3 4 5 6 6 7 7 8 11 9 8 10 10 11 9 12
REMARK H PARENT 3 5
REMARK Flexibility Score: inf
ROOT
ATOM      1  C   UNL     1       8.390  -0.788  -1.964  1.00  0.00     0.127 C 
ENDROOT
BRANCH   1   2
ATOM      2  C   UNL     1       8.401  -1.962  -2.855  1.00  0.00     0.303 C 
ATOM      3  O   UNL     1       7.303  -2.432  -3.261  1.00  0.00    -0.252 OA
BRANCH   2   4
ATOM      4  O   UNL     1       9.592  -2.575  -3.270  1.00  0.00    -0.481 OA
ATOM      5  H   UNL     1       9.806  -3.499  -2.921  1.00  0.00     0.296 HD
ENDBRANCH   2   4
ENDBRANCH   1   2
BRANCH   1   6
ATOM      6  C   UNL     1       7.089  -0.010  -2.055  1.00  0.00     0.047 C 
BRANCH   6   7
ATOM      7  C   UNL     1       6.465   0.141  -0.714  1.00  0.00    -0.047 A 
ATOM      8  C   UNL     1       5.769   1.296  -0.384  1.00  0.00     0.004 A 
ATOM      9  C   UNL     1       6.547  -0.832   0.264  1.00  0.00     0.004 A 
ATOM     10  C   UNL     1       5.189   1.471   0.851  1.00  0.00     0.000 A 
ATOM     11  C   UNL     1       5.965  -0.655   1.501  1.00  0.00     0.000 A 
ATOM     12  C   UNL     1       5.278   0.493   1.821  1.00  0.00     0.000 A 
ENDBRANCH   6   7
ENDBRANCH   1   6
TORSDOF 4
ENDMDL
MODEL 3
REMARK VINA RESULT:      -6.6      3.306      5.077
REMARK SMILES O=C(O)CCc1ccccc1
REMARK SMILES IDX 4 1 2 2 1 3 3 4 5 6 6 7 7 8 11 9 8 10 10 11 9 12
REMARK H PARENT 3 5
REMARK Flexibility Score: inf
ROOT
ATOM      1  C   UNL     1       5.066   1.742   0.763  1.00  0.00     0.127 C 
ENDROOT
BRANCH   1   2
ATOM      2  C   UNL     1       4.595   0.963   1.921  1.00  0.00     0.303 C 
ATOM      3  O   UNL     1       3.490   1.260   2.450  1.00  0.00    -0.252 OA
BRANCH   2   4
ATOM      4  O   UNL     1       5.335  -0.101   2.457  1.00  0.00    -0.481 OA
ATOM      5  H   UNL     1       4.917  -0.660   3.189  1.00  0.00     0.296 HD
ENDBRANCH   2   4
ENDBRANCH   1   2
BRANCH   1   6
ATOM      6  C   UNL     1       6.577   1.896   0.750  1.00  0.00     0.047 C 
BRANCH   6   7
ATOM      7  C   UNL     1       7.185   1.094  -0.343  1.00  0.00    -0.047 A 
ATOM      8  C   UNL     1       6.421   0.189  -1.066  1.00  0.00     0.004 A 
ATOM      9  C   UNL     1       8.520   1.192  -0.690  1.00  0.00     0.004 A 
ATOM     10  C   UNL     1       6.956  -0.576  -2.077  1.00  0.00     0.000 A 
ATOM     11  C   UNL     1       9.055   0.425  -1.703  1.00  0.00     0.000 A 
ATOM     12  C   UNL     1       8.291  -0.471  -2.415  1.00  0.00     0.000 A 
ENDBRANCH   6   7
ENDBRANCH   1   6
TORSDOF 4
ENDMDL
MODEL 4
REMARK VINA RESULT:      -6.6      1.869      2.879
REMARK SMILES O=C(O)CCc1ccccc1
REMARK SMILES IDX 4 1 2 2 1 3 3 4 5 6 6 7 7 8 11 9 8 10 10 11 9 12
REMARK H PARENT 3 5
REMARK Flexibility Score: inf
ROOT
ATOM      1  C   UNL     1       8.126  -1.624   1.104  1.00  0.00     0.127 C 
ENDROOT
BRANCH   1   2
ATOM      2  C   UNL     1       8.458  -2.803   0.284  1.00  0.00     0.303 C 
ATOM      3  O   UNL     1       9.110  -3.748   0.806  1.00  0.00    -0.252 OA
BRANCH   2   4
ATOM      4  O   UNL     1       8.073  -2.911  -1.060  1.00  0.00    -0.481 OA
ATOM      5  H   UNL     1       7.427  -3.644  -1.320  1.00  0.00     0.296 HD
ENDBRANCH   2   4
ENDBRANCH   1   2
BRANCH   1   6
ATOM      6  C   UNL     1       6.630  -1.480   1.322  1.00  0.00     0.047 C 
BRANCH   6   7
ATOM      7  C   UNL     1       6.132  -0.197   0.762  1.00  0.00    -0.047 A 
ATOM      8  C   UNL     1       5.386   0.674   1.543  1.00  0.00     0.004 A 
ATOM      9  C   UNL     1       6.368   0.192  -0.544  1.00  0.00     0.004 A 
ATOM     10  C   UNL     1       4.902   1.865   1.051  1.00  0.00     0.000 A 
ATOM     11  C   UNL     1       5.883   1.385  -1.035  1.00  0.00     0.000 A 
ATOM     12  C   UNL     1       5.142   2.243  -0.255  1.00  0.00     0.000 A 
ENDBRANCH   6   7
ENDBRANCH   1   6
TORSDOF 4
ENDMDL
MODEL 5
REMARK VINA RESULT:      -6.5      2.076      2.763
REMARK SMILES O=C(O)CCc1ccccc1
REMARK SMILES IDX 4 1 2 2 1 3 3 4 5 6 6 7 7 8 11 9 8 10 10 11 9 12
REMARK H PARENT 3 5
REMARK Flexibility Score: inf
ROOT
ATOM      1  C   UNL     1       8.542   0.705  -1.634  1.00  0.00     0.127 C 
ENDROOT
BRANCH   1   2
ATOM      2  C   UNL     1       9.689   0.295  -0.803  1.00  0.00     0.303 C 
ATOM      3  O   UNL     1       9.499  -0.512   0.147  1.00  0.00    -0.252 OA
BRANCH   2   4
ATOM      4  O   UNL     1      10.987   0.771  -1.034  1.00  0.00    -0.481 OA
ATOM      5  H   UNL     1      11.219   1.709  -0.735  1.00  0.00     0.296 HD
ENDBRANCH   2   4
ENDBRANCH   1   2
BRANCH   1   6
ATOM      6  C   UNL     1       7.342  -0.205  -1.444  1.00  0.00     0.047 C 
BRANCH   6   7
ATOM      7  C   UNL     1       6.442   0.314  -0.381  1.00  0.00    -0.047 A 
ATOM      8  C   UNL     1       5.799   1.534  -0.533  1.00  0.00     0.004 A 
ATOM      9  C   UNL     1       6.207  -0.367   0.799  1.00  0.00     0.004 A 
ATOM     10  C   UNL     1       4.968   2.047   0.437  1.00  0.00     0.000 A 
ATOM     11  C   UNL     1       5.374   0.148   1.769  1.00  0.00     0.000 A 
ATOM     12  C   UNL     1       4.740   1.360   1.612  1.00  0.00     0.000 A 
ENDBRANCH   6   7
ENDBRANCH   1   6
TORSDOF 4
ENDMDL
