@<TRIPOS>MOLECULE
/home/cewinharhar/GITHUB/reincatalyze/data/processed/docking_pred/2023-Apr-25-2248_maxeplen10_maxtrainstep1000_exh16_gamma099_lrac3e-4_lrcr1e-3/08d2e2d4a7c660d60546aaed77652d308bf13ce5_ligand_2.pdbqt
 12 12 0 0 0
SMALL
GASTEIGER

@<TRIPOS>ATOM
      1  C          8.4070   -0.6350   -2.1480 C.3     1  UNL1        0.1270
      2  C          8.4110   -1.9050   -2.8970 C.2     1  UNL1        0.3030
      3  O          7.3110   -2.4260   -3.2250 O.2     1  UNL1       -0.2520
      4  O          9.6000   -2.5550   -3.2600 O.3     1  UNL1       -0.4810
      5  H          9.5400   -3.4780   -3.6690 H       1  UNL1        0.2960
      6  C          7.0380    0.0210   -2.1400 C.3     1  UNL1        0.0470
      7  C          6.4860    0.0840   -0.7610 C.2     1  UNL1       -0.0470
      8  C          5.8260    1.2190   -0.3140 C.2     1  UNL1        0.0040
      9  C          6.6050   -0.9580    0.1410 C.2     1  UNL1        0.0040
     10  C          5.3130    1.3130    0.9590 C.2     1  UNL1        0.0000
     11  C          6.0910   -0.8630    1.4160 C.2     1  UNL1        0.0000
     12  C          5.4370    0.2670    1.8520 C.2     1  UNL1        0.0000
@<TRIPOS>BOND
     1     5     4    1
     2     4     2    1
     3     3     2    2
     4     2     1    1
     5     1     6    1
     6     6     7    1
     7     7     8    2
     8     7     9    1
     9     8    10    1
    10     9    11    2
    11    10    12    2
    12    11    12    1
