MODEL 1
REMARK VINA RESULT:      -7.3      0.000      0.000
REMARK SMILES O=C(O)CCc1ccccc1
REMARK SMILES IDX 4 1 2 2 1 3 3 4 5 6 6 7 7 8 11 9 8 10 10 11 9 12
REMARK H PARENT 3 5
REMARK Flexibility Score: inf
ROOT
ATOM      1  C   UNL     1       8.371  -0.762  -1.986  1.00  0.00     0.127 C 
ENDROOT
BRANCH   1   2
ATOM      2  C   UNL     1       8.379  -1.954  -2.852  1.00  0.00     0.303 C 
ATOM      3  O   UNL     1       7.282  -2.418  -3.266  1.00  0.00    -0.252 OA
BRANCH   2   4
ATOM      4  O   UNL     1       9.568  -2.593  -3.234  1.00  0.00    -0.481 OA
ATOM      5  H   UNL     1      10.246  -2.820  -2.519  1.00  0.00     0.296 HD
ENDBRANCH   2   4
ENDBRANCH   1   2
BRANCH   1   6
ATOM      6  C   UNL     1       7.050  -0.017  -2.048  1.00  0.00     0.047 C 
BRANCH   6   7
ATOM      7  C   UNL     1       6.456   0.128  -0.694  1.00  0.00    -0.047 A 
ATOM      8  C   UNL     1       6.563  -0.893   0.239  1.00  0.00     0.004 A 
ATOM      9  C   UNL     1       5.768   1.260  -0.295  1.00  0.00     0.004 A 
ATOM     10  C   UNL     1       6.015  -0.794   1.497  1.00  0.00     0.000 A 
ATOM     11  C   UNL     1       5.220   1.358   0.966  1.00  0.00     0.000 A 
ATOM     12  C   UNL     1       5.329   0.340   1.885  1.00  0.00     0.000 A 
ENDBRANCH   6   7
ENDBRANCH   1   6
TORSDOF 4
ENDMDL
MODEL 2
REMARK VINA RESULT:      -7.2      0.112      1.425
REMARK SMILES O=C(O)CCc1ccccc1
REMARK SMILES IDX 4 1 2 2 1 3 3 4 5 6 6 7 7 8 11 9 8 10 10 11 9 12
REMARK H PARENT 3 5
REMARK Flexibility Score: inf
ROOT
ATOM      1  C   UNL     1       8.407  -0.635  -2.148  1.00  0.00     0.127 C 
ENDROOT
BRANCH   1   2
ATOM      2  C   UNL     1       8.411  -1.905  -2.897  1.00  0.00     0.303 C 
ATOM      3  O   UNL     1       7.311  -2.426  -3.225  1.00  0.00    -0.252 OA
BRANCH   2   4
ATOM      4  O   UNL     1       9.600  -2.555  -3.260  1.00  0.00    -0.481 OA
ATOM      5  H   UNL     1       9.540  -3.478  -3.669  1.00  0.00     0.296 HD
ENDBRANCH   2   4
ENDBRANCH   1   2
BRANCH   1   6
ATOM      6  C   UNL     1       7.038   0.021  -2.140  1.00  0.00     0.047 C 
BRANCH   6   7
ATOM      7  C   UNL     1       6.486   0.084  -0.761  1.00  0.00    -0.047 A 
ATOM      8  C   UNL     1       5.826   1.219  -0.314  1.00  0.00     0.004 A 
ATOM      9  C   UNL     1       6.605  -0.958   0.141  1.00  0.00     0.004 A 
ATOM     10  C   UNL     1       5.313   1.313   0.959  1.00  0.00     0.000 A 
ATOM     11  C   UNL     1       6.091  -0.863   1.416  1.00  0.00     0.000 A 
ATOM     12  C   UNL     1       5.437   0.267   1.852  1.00  0.00     0.000 A 
ENDBRANCH   6   7
ENDBRANCH   1   6
TORSDOF 4
ENDMDL
MODEL 3
REMARK VINA RESULT:      -6.8      3.334      5.191
REMARK SMILES O=C(O)CCc1ccccc1
REMARK SMILES IDX 4 1 2 2 1 3 3 4 5 6 6 7 7 8 11 9 8 10 10 11 9 12
REMARK H PARENT 3 5
REMARK Flexibility Score: inf
ROOT
ATOM      1  C   UNL     1       4.999   1.737   0.716  1.00  0.00     0.127 C 
ENDROOT
BRANCH   1   2
ATOM      2  C   UNL     1       4.459   1.097   1.928  1.00  0.00     0.303 C 
ATOM      3  O   UNL     1       5.128   0.189   2.492  1.00  0.00    -0.252 OA
BRANCH   2   4
ATOM      4  O   UNL     1       3.223   1.464   2.480  1.00  0.00    -0.481 OA
ATOM      5  H   UNL     1       2.652   0.747   2.906  1.00  0.00     0.296 HD
ENDBRANCH   2   4
ENDBRANCH   1   2
BRANCH   1   6
ATOM      6  C   UNL     1       6.513   1.847   0.751  1.00  0.00     0.047 C 
BRANCH   6   7
ATOM      7  C   UNL     1       7.131   1.043  -0.335  1.00  0.00    -0.047 A 
ATOM      8  C   UNL     1       8.462   1.226  -0.682  1.00  0.00     0.004 A 
ATOM      9  C   UNL     1       6.430   0.093  -1.055  1.00  0.00     0.004 A 
ATOM     10  C   UNL     1       9.060   0.505  -1.690  1.00  0.00     0.000 A 
ATOM     11  C   UNL     1       7.030  -0.629  -2.064  1.00  0.00     0.000 A 
ATOM     12  C   UNL     1       8.351  -0.440  -2.404  1.00  0.00     0.000 A 
ENDBRANCH   6   7
ENDBRANCH   1   6
TORSDOF 4
ENDMDL
MODEL 4
REMARK VINA RESULT:      -6.6      3.819      4.991
REMARK SMILES O=C(O)CCc1ccccc1
REMARK SMILES IDX 4 1 2 2 1 3 3 4 5 6 6 7 7 8 11 9 8 10 10 11 9 12
REMARK H PARENT 3 5
REMARK Flexibility Score: inf
ROOT
ATOM      1  C   UNL     1       5.622   2.934  -0.035  1.00  0.00     0.127 C 
ENDROOT
BRANCH   1   2
ATOM      2  C   UNL     1       6.348   3.904   0.803  1.00  0.00     0.303 C 
ATOM      3  O   UNL     1       7.076   4.769   0.247  1.00  0.00    -0.252 OA
BRANCH   2   4
ATOM      4  O   UNL     1       6.255   3.900   2.203  1.00  0.00    -0.481 OA
ATOM      5  H   UNL     1       5.973   3.046   2.666  1.00  0.00     0.296 HD
ENDBRANCH   2   4
ENDBRANCH   1   2
BRANCH   1   6
ATOM      6  C   UNL     1       4.879   1.901   0.794  1.00  0.00     0.047 C 
BRANCH   6   7
ATOM      7  C   UNL     1       5.676   0.653   0.928  1.00  0.00    -0.047 A 
ATOM      8  C   UNL     1       6.335   0.113  -0.167  1.00  0.00     0.004 A 
ATOM      9  C   UNL     1       5.795  -0.033   2.123  1.00  0.00     0.004 A 
ATOM     10  C   UNL     1       7.071  -1.046  -0.077  1.00  0.00     0.000 A 
ATOM     11  C   UNL     1       6.533  -1.194   2.211  1.00  0.00     0.000 A 
ATOM     12  C   UNL     1       7.184  -1.724   1.120  1.00  0.00     0.000 A 
ENDBRANCH   6   7
ENDBRANCH   1   6
TORSDOF 4
ENDMDL
MODEL 5
REMARK VINA RESULT:      -6.6      1.979      2.237
REMARK SMILES O=C(O)CCc1ccccc1
REMARK SMILES IDX 4 1 2 2 1 3 3 4 5 6 6 7 7 8 11 9 8 10 10 11 9 12
REMARK H PARENT 3 5
REMARK Flexibility Score: inf
ROOT
ATOM      1  C   UNL     1       8.292   0.345  -1.982  1.00  0.00     0.127 C 
ENDROOT
BRANCH   1   2
ATOM      2  C   UNL     1       9.469   0.406  -1.098  1.00  0.00     0.303 C 
ATOM      3  O   UNL     1       9.535  -0.378  -0.112  1.00  0.00    -0.252 OA
BRANCH   2   4
ATOM      4  O   UNL     1      10.523   1.305  -1.316  1.00  0.00    -0.481 OA
ATOM      5  H   UNL     1      10.700   2.019  -0.622  1.00  0.00     0.296 HD
ENDBRANCH   2   4
ENDBRANCH   1   2
BRANCH   1   6
ATOM      6  C   UNL     1       7.212  -0.573  -1.439  1.00  0.00     0.047 C 
BRANCH   6   7
ATOM      7  C   UNL     1       6.399   0.115  -0.403  1.00  0.00    -0.047 A 
ATOM      8  C   UNL     1       6.176  -0.478   0.832  1.00  0.00     0.004 A 
ATOM      9  C   UNL     1       5.822   1.355  -0.606  1.00  0.00     0.004 A 
ATOM     10  C   UNL     1       5.419   0.129   1.808  1.00  0.00     0.000 A 
ATOM     11  C   UNL     1       5.064   1.962   0.372  1.00  0.00     0.000 A 
ATOM     12  C   UNL     1       4.846   1.366   1.594  1.00  0.00     0.000 A 
ENDBRANCH   6   7
ENDBRANCH   1   6
TORSDOF 4
ENDMDL
