@<TRIPOS>MOLECULE
/home/cewinharhar/GITHUB/reincatalyze/data/processed/docking_pred/2023-Apr-25-2248_maxeplen10_maxtrainstep1000_exh16_gamma099_lrac3e-4_lrcr1e-3/08d2e2d4a7c660d60546aaed77652d308bf13ce5_ligand_2.pdbqt
 12 12 0 0 0
SMALL
GASTEIGER

@<TRIPOS>ATOM
      1  C          4.9990    1.7370    0.7160 C.3     1  UNL1        0.1270
      2  C          4.4590    1.0970    1.9280 C.2     1  UNL1        0.3030
      3  O          5.1280    0.1890    2.4920 O.2     1  UNL1       -0.2520
      4  O          3.2230    1.4640    2.4800 O.3     1  UNL1       -0.4810
      5  H          2.6520    0.7470    2.9060 H       1  UNL1        0.2960
      6  C          6.5130    1.8470    0.7510 C.3     1  UNL1        0.0470
      7  C          7.1310    1.0430   -0.3350 C.2     1  UNL1       -0.0470
      8  C          8.4620    1.2260   -0.6820 C.2     1  UNL1        0.0040
      9  C          6.4300    0.0930   -1.0550 C.2     1  UNL1        0.0040
     10  C          9.0600    0.5050   -1.6900 C.2     1  UNL1        0.0000
     11  C          7.0300   -0.6290   -2.0640 C.2     1  UNL1        0.0000
     12  C          8.3510   -0.4400   -2.4040 C.2     1  UNL1        0.0000
@<TRIPOS>BOND
     1    12    11    2
     2    12    10    1
     3    11     9    1
     4    10     8    2
     5     9     7    2
     6     8     7    1
     7     7     6    1
     8     1     6    1
     9     1     2    1
    10     2     4    1
    11     2     3    2
    12     4     5    1
