@<TRIPOS>MOLECULE
/home/cewinharhar/GITHUB/reincatalyze/data/processed/docking_pred/2023-Apr-25-2248_maxeplen10_maxtrainstep1000_exh16_gamma099_lrac3e-4_lrcr1e-3/08d2e2d4a7c660d60546aaed77652d308bf13ce5_ligand_2.pdbqt
 12 12 0 0 0
SMALL
GASTEIGER

@<TRIPOS>ATOM
      1  C          8.2920    0.3450   -1.9820 C.3     1  UNL1        0.1270
      2  C          9.4690    0.4060   -1.0980 C.2     1  UNL1        0.3030
      3  O          9.5350   -0.3780   -0.1120 O.2     1  UNL1       -0.2520
      4  O         10.5230    1.3050   -1.3160 O.3     1  UNL1       -0.4810
      5  H         10.7000    2.0190   -0.6220 H       1  UNL1        0.2960
      6  C          7.2120   -0.5730   -1.4390 C.3     1  UNL1        0.0470
      7  C          6.3990    0.1150   -0.4030 C.2     1  UNL1       -0.0470
      8  C          6.1760   -0.4780    0.8320 C.2     1  UNL1        0.0040
      9  C          5.8220    1.3550   -0.6060 C.2     1  UNL1        0.0040
     10  C          5.4190    0.1290    1.8080 C.2     1  UNL1        0.0000
     11  C          5.0640    1.9620    0.3720 C.2     1  UNL1        0.0000
     12  C          4.8460    1.3660    1.5940 C.2     1  UNL1        0.0000
@<TRIPOS>BOND
     1     1     6    1
     2     1     2    1
     3     6     7    1
     4     4     2    1
     5     4     5    1
     6     2     3    2
     7     9     7    2
     8     9    11    1
     9     7     8    1
    10    11    12    2
    11     8    10    2
    12    12    10    1
