@<TRIPOS>MOLECULE
/home/cewinharhar/GITHUB/reincatalyze/data/processed/docking_pred/2023-Apr-25-2248_maxeplen10_maxtrainstep1000_exh16_gamma099_lrac3e-4_lrcr1e-3/08d2e2d4a7c660d60546aaed77652d308bf13ce5_ligand_2.pdbqt
 12 12 0 0 0
SMALL
GASTEIGER

@<TRIPOS>ATOM
      1  C          5.6220    2.9340   -0.0350 C.3     1  UNL1        0.1270
      2  C          6.3480    3.9040    0.8030 C.2     1  UNL1        0.3030
      3  O          7.0760    4.7690    0.2470 O.2     1  UNL1       -0.2520
      4  O          6.2550    3.9000    2.2030 O.3     1  UNL1       -0.4810
      5  H          5.9730    3.0460    2.6660 H       1  UNL1        0.2960
      6  C          4.8790    1.9010    0.7940 C.3     1  UNL1        0.0470
      7  C          5.6760    0.6530    0.9280 C.2     1  UNL1       -0.0470
      8  C          6.3350    0.1130   -0.1670 C.2     1  UNL1        0.0040
      9  C          5.7950   -0.0330    2.1230 C.2     1  UNL1        0.0040
     10  C          7.0710   -1.0460   -0.0770 C.2     1  UNL1        0.0000
     11  C          6.5330   -1.1940    2.2110 C.2     1  UNL1        0.0000
     12  C          7.1840   -1.7240    1.1200 C.2     1  UNL1        0.0000
@<TRIPOS>BOND
     1     8    10    1
     2     8     7    2
     3    10    12    2
     4     1     6    1
     5     1     2    1
     6     3     2    2
     7     6     7    1
     8     2     4    1
     9     7     9    1
    10    12    11    1
    11     9    11    2
    12     4     5    1
