@<TRIPOS>MOLECULE
/home/cewinharhar/GITHUB/reincatalyze/data/processed/docking_pred/2023-Apr-25-2248_maxeplen10_maxtrainstep1000_exh16_gamma099_lrac3e-4_lrcr1e-3/08d2e2d4a7c660d60546aaed77652d308bf13ce5_ligand_2.pdbqt
 12 12 0 0 0
SMALL
GASTEIGER

@<TRIPOS>ATOM
      1  C          8.3710   -0.7620   -1.9860 C.3     1  UNL1        0.1270
      2  C          8.3790   -1.9540   -2.8520 C.2     1  UNL1        0.3030
      3  O          7.2820   -2.4180   -3.2660 O.2     1  UNL1       -0.2520
      4  O          9.5680   -2.5930   -3.2340 O.3     1  UNL1       -0.4810
      5  H         10.2460   -2.8200   -2.5190 H       1  UNL1        0.2960
      6  C          7.0500   -0.0170   -2.0480 C.3     1  UNL1        0.0470
      7  C          6.4560    0.1280   -0.6940 C.2     1  UNL1       -0.0470
      8  C          6.5630   -0.8930    0.2390 C.2     1  UNL1        0.0040
      9  C          5.7680    1.2600   -0.2950 C.2     1  UNL1        0.0040
     10  C          6.0150   -0.7940    1.4970 C.2     1  UNL1        0.0000
     11  C          5.2200    1.3580    0.9660 C.2     1  UNL1        0.0000
     12  C          5.3290    0.3400    1.8850 C.2     1  UNL1        0.0000
@<TRIPOS>BOND
     1     3     2    2
     2     4     2    1
     3     4     5    1
     4     2     1    1
     5     6     1    1
     6     6     7    1
     7     7     9    2
     8     7     8    1
     9     9    11    1
    10     8    10    2
    11    11    12    2
    12    10    12    1
