@<TRIPOS>MOLECULE
/home/cewinharhar/GITHUB/reincatalyze/data/processed/docking_pred/2023-Apr-25-2248_maxeplen10_maxtrainstep1000_exh16_gamma099_lrac3e-4_lrcr1e-3/08e84468c81f1cd513554bb3b422d21af10d92b8_ligand_2.pdbqt
 12 12 0 0 0
SMALL
GASTEIGER

@<TRIPOS>ATOM
      1  C          8.1920    0.2830   -2.0580 C.3     1  UNL1        0.1270
      2  C          9.3760    0.3890   -1.1870 C.2     1  UNL1        0.3030
      3  O          9.4810   -0.3880   -0.1990 O.2     1  UNL1       -0.2520
      4  O         10.3940    1.3240   -1.4190 O.3     1  UNL1       -0.4810
      5  H         10.1510    2.3050   -1.4560 H       1  UNL1        0.2960
      6  C          7.1290   -0.6290   -1.4730 C.3     1  UNL1        0.0470
      7  C          6.3500    0.0690   -0.4180 C.2     1  UNL1       -0.0470
      8  C          5.8050    1.3230   -0.6540 C.2     1  UNL1        0.0040
      9  C          6.1360   -0.4720    0.8360 C.2     1  UNL1        0.0040
     10  C          5.0880    2.0000    0.3060 C.2     1  UNL1        0.0000
     11  C          5.4170    0.2070    1.7970 C.2     1  UNL1        0.0000
     12  C          4.8800    1.4520    1.5550 C.2     1  UNL1        0.0000
@<TRIPOS>BOND
     1     1     6    1
     2     1     2    1
     3     6     7    1
     4     5     4    1
     5     4     2    1
     6     2     3    2
     7     8     7    2
     8     8    10    1
     9     7     9    1
    10    10    12    2
    11     9    11    2
    12    12    11    1
