@<TRIPOS>MOLECULE
/home/cewinharhar/GITHUB/reincatalyze/data/processed/docking_pred/2023-Apr-25-2248_maxeplen10_maxtrainstep1000_exh16_gamma099_lrac3e-4_lrcr1e-3/08e84468c81f1cd513554bb3b422d21af10d92b8_ligand_2.pdbqt
 12 12 0 0 0
SMALL
GASTEIGER

@<TRIPOS>ATOM
      1  C          8.4060   -0.6120   -2.1880 C.3     1  UNL1        0.1270
      2  C          8.4480   -1.8980   -2.9050 C.2     1  UNL1        0.3030
      3  O          9.5570   -2.4780   -3.0600 O.2     1  UNL1       -0.2520
      4  O          7.2930   -2.5030   -3.4230 O.3     1  UNL1       -0.4810
      5  H          6.4270   -1.9810   -3.4110 H       1  UNL1        0.2960
      6  C          7.0200    0.0060   -2.1970 C.3     1  UNL1        0.0470
      7  C          6.4850    0.1360   -0.8170 C.2     1  UNL1       -0.0470
      8  C          6.5800   -0.9180    0.0810 C.2     1  UNL1        0.0040
      9  C          5.8650    1.2840   -0.3590 C.2     1  UNL1        0.0040
     10  C          6.0850   -0.8340    1.3620 C.2     1  UNL1        0.0000
     11  C          5.3700    1.3670    0.9250 C.2     1  UNL1        0.0000
     12  C          5.4670    0.3170    1.8090 C.2     1  UNL1        0.0000
@<TRIPOS>BOND
     1     4     5    1
     2     4     2    1
     3     3     2    2
     4     2     1    1
     5     6     1    1
     6     6     7    1
     7     7     9    2
     8     7     8    1
     9     9    11    1
    10     8    10    2
    11    11    12    2
    12    10    12    1
