@<TRIPOS>MOLECULE
/home/cewinharhar/GITHUB/reincatalyze/data/processed/docking_pred/2023-Apr-25-2248_maxeplen10_maxtrainstep1000_exh16_gamma099_lrac3e-4_lrcr1e-3/08e84468c81f1cd513554bb3b422d21af10d92b8_ligand_2.pdbqt
 12 12 0 0 0
SMALL
GASTEIGER

@<TRIPOS>ATOM
      1  C          5.0340    1.7950    0.7580 C.3     1  UNL1        0.1270
      2  C          4.4790    1.1100    1.9390 C.2     1  UNL1        0.3030
      3  O          5.1470    0.1890    2.4830 O.2     1  UNL1       -0.2520
      4  O          3.2310    1.4480    2.4820 O.3     1  UNL1       -0.4810
      5  H          2.6590    0.7120    2.8750 H       1  UNL1        0.2960
      6  C          6.5500    1.8570    0.7900 C.3     1  UNL1        0.0470
      7  C          7.1400    1.0520   -0.3110 C.2     1  UNL1       -0.0470
      8  C          8.4660    1.2230   -0.6820 C.2     1  UNL1        0.0040
      9  C          6.4150    0.1130   -1.0230 C.2     1  UNL1        0.0040
     10  C          9.0380    0.5010   -1.7040 C.2     1  UNL1        0.0000
     11  C          6.9900   -0.6090   -2.0470 C.2     1  UNL1        0.0000
     12  C          8.3060   -0.4330   -2.4090 C.2     1  UNL1        0.0000
@<TRIPOS>BOND
     1    12    11    2
     2    12    10    1
     3    11     9    1
     4    10     8    2
     5     9     7    2
     6     8     7    1
     7     7     6    1
     8     1     6    1
     9     1     2    1
    10     2     4    1
    11     2     3    2
    12     4     5    1
