MODEL 1
REMARK VINA RESULT:      -7.3      0.000      0.000
REMARK SMILES O=C(O)CCc1ccccc1
REMARK SMILES IDX 4 1 2 2 1 3 3 4 5 6 6 7 7 8 11 9 8 10 10 11 9 12
REMARK H PARENT 3 5
REMARK Flexibility Score: inf
ROOT
ATOM      1  C   UNL     1       8.439  -0.657  -2.135  1.00  0.00     0.127 C 
ENDROOT
BRANCH   1   2
ATOM      2  C   UNL     1       8.465  -1.913  -2.906  1.00  0.00     0.303 C 
ATOM      3  O   UNL     1       9.569  -2.492  -3.095  1.00  0.00    -0.252 OA
BRANCH   2   4
ATOM      4  O   UNL     1       7.302  -2.490  -3.436  1.00  0.00    -0.481 OA
ATOM      5  H   UNL     1       6.920  -3.310  -2.985  1.00  0.00     0.296 HD
ENDBRANCH   2   4
ENDBRANCH   1   2
BRANCH   1   6
ATOM      6  C   UNL     1       7.066  -0.008  -2.143  1.00  0.00     0.047 C 
BRANCH   6   7
ATOM      7  C   UNL     1       6.505   0.067  -0.769  1.00  0.00    -0.047 A 
ATOM      8  C   UNL     1       5.848   1.210  -0.334  1.00  0.00     0.004 A 
ATOM      9  C   UNL     1       6.610  -0.969   0.140  1.00  0.00     0.004 A 
ATOM     10  C   UNL     1       5.327   1.315   0.935  1.00  0.00     0.000 A 
ATOM     11  C   UNL     1       6.086  -0.863   1.411  1.00  0.00     0.000 A 
ATOM     12  C   UNL     1       5.438   0.274   1.835  1.00  0.00     0.000 A 
ENDBRANCH   6   7
ENDBRANCH   1   6
TORSDOF 4
ENDMDL
MODEL 2
REMARK VINA RESULT:      -7.3      0.065      1.422
REMARK SMILES O=C(O)CCc1ccccc1
REMARK SMILES IDX 4 1 2 2 1 3 3 4 5 6 6 7 7 8 11 9 8 10 10 11 9 12
REMARK H PARENT 3 5
REMARK Flexibility Score: inf
ROOT
ATOM      1  C   UNL     1       8.406  -0.612  -2.188  1.00  0.00     0.127 C 
ENDROOT
BRANCH   1   2
ATOM      2  C   UNL     1       8.448  -1.898  -2.905  1.00  0.00     0.303 C 
ATOM      3  O   UNL     1       9.557  -2.478  -3.060  1.00  0.00    -0.252 OA
BRANCH   2   4
ATOM      4  O   UNL     1       7.293  -2.503  -3.423  1.00  0.00    -0.481 OA
ATOM      5  H   UNL     1       6.427  -1.981  -3.411  1.00  0.00     0.296 HD
ENDBRANCH   2   4
ENDBRANCH   1   2
BRANCH   1   6
ATOM      6  C   UNL     1       7.020   0.006  -2.197  1.00  0.00     0.047 C 
BRANCH   6   7
ATOM      7  C   UNL     1       6.485   0.136  -0.817  1.00  0.00    -0.047 A 
ATOM      8  C   UNL     1       6.580  -0.918   0.081  1.00  0.00     0.004 A 
ATOM      9  C   UNL     1       5.865   1.284  -0.359  1.00  0.00     0.004 A 
ATOM     10  C   UNL     1       6.085  -0.834   1.362  1.00  0.00     0.000 A 
ATOM     11  C   UNL     1       5.370   1.367   0.925  1.00  0.00     0.000 A 
ATOM     12  C   UNL     1       5.467   0.317   1.809  1.00  0.00     0.000 A 
ENDBRANCH   6   7
ENDBRANCH   1   6
TORSDOF 4
ENDMDL
MODEL 3
REMARK VINA RESULT:      -6.8      3.398      5.080
REMARK SMILES O=C(O)CCc1ccccc1
REMARK SMILES IDX 4 1 2 2 1 3 3 4 5 6 6 7 7 8 11 9 8 10 10 11 9 12
REMARK H PARENT 3 5
REMARK Flexibility Score: inf
ROOT
ATOM      1  C   UNL     1       5.034   1.795   0.758  1.00  0.00     0.127 C 
ENDROOT
BRANCH   1   2
ATOM      2  C   UNL     1       4.479   1.110   1.939  1.00  0.00     0.303 C 
ATOM      3  O   UNL     1       5.147   0.189   2.483  1.00  0.00    -0.252 OA
BRANCH   2   4
ATOM      4  O   UNL     1       3.231   1.448   2.482  1.00  0.00    -0.481 OA
ATOM      5  H   UNL     1       2.659   0.712   2.875  1.00  0.00     0.296 HD
ENDBRANCH   2   4
ENDBRANCH   1   2
BRANCH   1   6
ATOM      6  C   UNL     1       6.550   1.857   0.790  1.00  0.00     0.047 C 
BRANCH   6   7
ATOM      7  C   UNL     1       7.140   1.052  -0.311  1.00  0.00    -0.047 A 
ATOM      8  C   UNL     1       8.466   1.223  -0.682  1.00  0.00     0.004 A 
ATOM      9  C   UNL     1       6.415   0.113  -1.023  1.00  0.00     0.004 A 
ATOM     10  C   UNL     1       9.038   0.501  -1.704  1.00  0.00     0.000 A 
ATOM     11  C   UNL     1       6.990  -0.609  -2.047  1.00  0.00     0.000 A 
ATOM     12  C   UNL     1       8.306  -0.433  -2.409  1.00  0.00     0.000 A 
ENDBRANCH   6   7
ENDBRANCH   1   6
TORSDOF 4
ENDMDL
MODEL 4
REMARK VINA RESULT:      -6.6      1.955      2.287
REMARK SMILES O=C(O)CCc1ccccc1
REMARK SMILES IDX 4 1 2 2 1 3 3 4 5 6 6 7 7 8 11 9 8 10 10 11 9 12
REMARK H PARENT 3 5
REMARK Flexibility Score: inf
ROOT
ATOM      1  C   UNL     1       8.192   0.283  -2.058  1.00  0.00     0.127 C 
ENDROOT
BRANCH   1   2
ATOM      2  C   UNL     1       9.376   0.389  -1.187  1.00  0.00     0.303 C 
ATOM      3  O   UNL     1       9.481  -0.388  -0.199  1.00  0.00    -0.252 OA
BRANCH   2   4
ATOM      4  O   UNL     1      10.394   1.324  -1.419  1.00  0.00    -0.481 OA
ATOM      5  H   UNL     1      10.151   2.305  -1.456  1.00  0.00     0.296 HD
ENDBRANCH   2   4
ENDBRANCH   1   2
BRANCH   1   6
ATOM      6  C   UNL     1       7.129  -0.629  -1.473  1.00  0.00     0.047 C 
BRANCH   6   7
ATOM      7  C   UNL     1       6.350   0.069  -0.418  1.00  0.00    -0.047 A 
ATOM      8  C   UNL     1       5.805   1.323  -0.654  1.00  0.00     0.004 A 
ATOM      9  C   UNL     1       6.136  -0.472   0.836  1.00  0.00     0.004 A 
ATOM     10  C   UNL     1       5.088   2.000   0.306  1.00  0.00     0.000 A 
ATOM     11  C   UNL     1       5.417   0.207   1.797  1.00  0.00     0.000 A 
ATOM     12  C   UNL     1       4.880   1.452   1.555  1.00  0.00     0.000 A 
ENDBRANCH   6   7
ENDBRANCH   1   6
TORSDOF 4
ENDMDL
MODEL 5
REMARK VINA RESULT:      -6.5      1.946      2.967
REMARK SMILES O=C(O)CCc1ccccc1
REMARK SMILES IDX 4 1 2 2 1 3 3 4 5 6 6 7 7 8 11 9 8 10 10 11 9 12
REMARK H PARENT 3 5
REMARK Flexibility Score: inf
ROOT
ATOM      1  C   UNL     1       8.186  -1.706   1.234  1.00  0.00     0.127 C 
ENDROOT
BRANCH   1   2
ATOM      2  C   UNL     1       8.598  -2.896   0.470  1.00  0.00     0.303 C 
ATOM      3  O   UNL     1       9.382  -3.727   1.006  1.00  0.00    -0.252 OA
BRANCH   2   4
ATOM      4  O   UNL     1       8.148  -3.140  -0.836  1.00  0.00    -0.481 OA
ATOM      5  H   UNL     1       8.279  -4.063  -1.228  1.00  0.00     0.296 HD
ENDBRANCH   2   4
ENDBRANCH   1   2
BRANCH   1   6
ATOM      6  C   UNL     1       6.678  -1.616   1.386  1.00  0.00     0.047 C 
BRANCH   6   7
ATOM      7  C   UNL     1       6.163  -0.332   0.844  1.00  0.00    -0.047 A 
ATOM      8  C   UNL     1       6.427   0.039  -0.467  1.00  0.00     0.004 A 
ATOM      9  C   UNL     1       5.416   0.554   1.599  1.00  0.00     0.004 A 
ATOM     10  C   UNL     1       5.973   1.226  -0.996  1.00  0.00     0.000 A 
ATOM     11  C   UNL     1       4.963   1.742   1.068  1.00  0.00     0.000 A 
ATOM     12  C   UNL     1       5.229   2.104  -0.233  1.00  0.00     0.000 A 
ENDBRANCH   6   7
ENDBRANCH   1   6
TORSDOF 4
ENDMDL
