@<TRIPOS>MOLECULE
/home/cewinharhar/GITHUB/reincatalyze/data/processed/docking_pred/2023-Apr-25-2248_maxeplen10_maxtrainstep1000_exh16_gamma099_lrac3e-4_lrcr1e-3/08e84468c81f1cd513554bb3b422d21af10d92b8_ligand_2.pdbqt
 12 12 0 0 0
SMALL
GASTEIGER

@<TRIPOS>ATOM
      1  C          8.1860   -1.7060    1.2340 C.3     1  UNL1        0.1270
      2  C          8.5980   -2.8960    0.4700 C.2     1  UNL1        0.3030
      3  O          9.3820   -3.7270    1.0060 O.2     1  UNL1       -0.2520
      4  O          8.1480   -3.1400   -0.8360 O.3     1  UNL1       -0.4810
      5  H          8.2790   -4.0630   -1.2280 H       1  UNL1        0.2960
      6  C          6.6780   -1.6160    1.3860 C.3     1  UNL1        0.0470
      7  C          6.1630   -0.3320    0.8440 C.2     1  UNL1       -0.0470
      8  C          6.4270    0.0390   -0.4670 C.2     1  UNL1        0.0040
      9  C          5.4160    0.5540    1.5990 C.2     1  UNL1        0.0040
     10  C          5.9730    1.2260   -0.9960 C.2     1  UNL1        0.0000
     11  C          4.9630    1.7420    1.0680 C.2     1  UNL1        0.0000
     12  C          5.2290    2.1040   -0.2330 C.2     1  UNL1        0.0000
@<TRIPOS>BOND
     1     5     4    1
     2    10     8    1
     3    10    12    2
     4     4     2    1
     5     8     7    2
     6    12    11    1
     7     2     3    2
     8     2     1    1
     9     7     6    1
    10     7     9    1
    11    11     9    2
    12     1     6    1
