@<TRIPOS>MOLECULE
/home/cewinharhar/GITHUB/reincatalyze/data/processed/docking_pred/2023-Apr-25-2248_maxeplen10_maxtrainstep1000_exh16_gamma099_lrac3e-4_lrcr1e-3/08e84468c81f1cd513554bb3b422d21af10d92b8_ligand_2.pdbqt
 12 12 0 0 0
SMALL
GASTEIGER

@<TRIPOS>ATOM
      1  C          8.4390   -0.6570   -2.1350 C.3     1  UNL1        0.1270
      2  C          8.4650   -1.9130   -2.9060 C.2     1  UNL1        0.3030
      3  O          9.5690   -2.4920   -3.0950 O.2     1  UNL1       -0.2520
      4  O          7.3020   -2.4900   -3.4360 O.3     1  UNL1       -0.4810
      5  H          6.9200   -3.3100   -2.9850 H       1  UNL1        0.2960
      6  C          7.0660   -0.0080   -2.1430 C.3     1  UNL1        0.0470
      7  C          6.5050    0.0670   -0.7690 C.2     1  UNL1       -0.0470
      8  C          5.8480    1.2100   -0.3340 C.2     1  UNL1        0.0040
      9  C          6.6100   -0.9690    0.1400 C.2     1  UNL1        0.0040
     10  C          5.3270    1.3150    0.9350 C.2     1  UNL1        0.0000
     11  C          6.0860   -0.8630    1.4110 C.2     1  UNL1        0.0000
     12  C          5.4380    0.2740    1.8350 C.2     1  UNL1        0.0000
@<TRIPOS>BOND
     1     4     5    1
     2     4     2    1
     3     3     2    2
     4     2     1    1
     5     6     1    1
     6     6     7    1
     7     7     8    2
     8     7     9    1
     9     8    10    1
    10     9    11    2
    11    10    12    2
    12    11    12    1
