MODEL 1
REMARK VINA RESULT:      -7.0      0.000      0.000
REMARK SMILES O=C(O)CCc1ccccc1
REMARK SMILES IDX 4 1 2 2 1 3 3 4 5 6 6 7 7 8 11 9 8 10 10 11 9 12
REMARK H PARENT 3 5
REMARK Flexibility Score: inf
ROOT
ATOM      1  C   UNL     1       8.394  -0.706  -2.050  1.00  0.00     0.127 C 
ENDROOT
BRANCH   1   2
ATOM      2  C   UNL     1       8.400  -1.929  -2.871  1.00  0.00     0.303 C 
ATOM      3  O   UNL     1       7.300  -2.423  -3.243  1.00  0.00    -0.252 OA
BRANCH   2   4
ATOM      4  O   UNL     1       9.589  -2.566  -3.257  1.00  0.00    -0.481 OA
ATOM      5  H   UNL     1      10.420  -2.415  -2.701  1.00  0.00     0.296 HD
ENDBRANCH   2   4
ENDBRANCH   1   2
BRANCH   1   6
ATOM      6  C   UNL     1       7.058   0.013  -2.101  1.00  0.00     0.047 C 
BRANCH   6   7
ATOM      7  C   UNL     1       6.469   0.141  -0.742  1.00  0.00    -0.047 A 
ATOM      8  C   UNL     1       6.579  -0.893   0.177  1.00  0.00     0.004 A 
ATOM      9  C   UNL     1       5.784   1.268  -0.327  1.00  0.00     0.004 A 
ATOM     10  C   UNL     1       6.036  -0.809   1.438  1.00  0.00     0.000 A 
ATOM     11  C   UNL     1       5.241   1.350   0.937  1.00  0.00     0.000 A 
ATOM     12  C   UNL     1       5.353   0.320   1.843  1.00  0.00     0.000 A 
ENDBRANCH   6   7
ENDBRANCH   1   6
TORSDOF 4
ENDMDL
MODEL 2
REMARK VINA RESULT:      -7.0      0.044      1.421
REMARK SMILES O=C(O)CCc1ccccc1
REMARK SMILES IDX 4 1 2 2 1 3 3 4 5 6 6 7 7 8 11 9 8 10 10 11 9 12
REMARK H PARENT 3 5
REMARK Flexibility Score: inf
ROOT
ATOM      1  C   UNL     1       8.406  -0.651  -2.118  1.00  0.00     0.127 C 
ENDROOT
BRANCH   1   2
ATOM      2  C   UNL     1       8.409  -1.908  -2.887  1.00  0.00     0.303 C 
ATOM      3  O   UNL     1       7.308  -2.419  -3.229  1.00  0.00    -0.252 OA
BRANCH   2   4
ATOM      4  O   UNL     1       9.597  -2.556  -3.255  1.00  0.00    -0.481 OA
ATOM      5  H   UNL     1       9.613  -3.081  -4.120  1.00  0.00     0.296 HD
ENDBRANCH   2   4
ENDBRANCH   1   2
BRANCH   1   6
ATOM      6  C   UNL     1       7.050   0.032  -2.140  1.00  0.00     0.047 C 
BRANCH   6   7
ATOM      7  C   UNL     1       6.475   0.117  -0.772  1.00  0.00    -0.047 A 
ATOM      8  C   UNL     1       5.778   1.247  -0.367  1.00  0.00     0.004 A 
ATOM      9  C   UNL     1       6.605  -0.897   0.159  1.00  0.00     0.004 A 
ATOM     10  C   UNL     1       5.242   1.360   0.896  1.00  0.00     0.000 A 
ATOM     11  C   UNL     1       6.067  -0.781   1.423  1.00  0.00     0.000 A 
ATOM     12  C   UNL     1       5.379   0.343   1.819  1.00  0.00     0.000 A 
ENDBRANCH   6   7
ENDBRANCH   1   6
TORSDOF 4
ENDMDL
MODEL 3
REMARK VINA RESULT:      -6.7      1.375      2.223
REMARK SMILES O=C(O)CCc1ccccc1
REMARK SMILES IDX 4 1 2 2 1 3 3 4 5 6 6 7 7 8 11 9 8 10 10 11 9 12
REMARK H PARENT 3 5
REMARK Flexibility Score: inf
ROOT
ATOM      1  C   UNL     1       8.304  -0.862  -1.860  1.00  0.00     0.127 C 
ENDROOT
BRANCH   1   2
ATOM      2  C   UNL     1       8.395  -1.973  -2.824  1.00  0.00     0.303 C 
ATOM      3  O   UNL     1       9.525  -2.471  -3.081  1.00  0.00    -0.252 OA
BRANCH   2   4
ATOM      4  O   UNL     1       7.265  -2.499  -3.468  1.00  0.00    -0.481 OA
ATOM      5  H   UNL     1       7.373  -3.333  -4.029  1.00  0.00     0.296 HD
ENDBRANCH   2   4
ENDBRANCH   1   2
BRANCH   1   6
ATOM      6  C   UNL     1       6.877  -0.612  -1.406  1.00  0.00     0.047 C 
BRANCH   6   7
ATOM      7  C   UNL     1       6.772   0.673  -0.667  1.00  0.00    -0.047 A 
ATOM      8  C   UNL     1       5.566   1.357  -0.605  1.00  0.00     0.004 A 
ATOM      9  C   UNL     1       7.847   1.256  -0.021  1.00  0.00     0.004 A 
ATOM     10  C   UNL     1       5.438   2.553   0.062  1.00  0.00     0.000 A 
ATOM     11  C   UNL     1       7.717   2.455   0.647  1.00  0.00     0.000 A 
ATOM     12  C   UNL     1       6.518   3.127   0.703  1.00  0.00     0.000 A 
ENDBRANCH   6   7
ENDBRANCH   1   6
TORSDOF 4
ENDMDL
MODEL 4
REMARK VINA RESULT:      -6.4      2.484      3.174
REMARK SMILES O=C(O)CCc1ccccc1
REMARK SMILES IDX 4 1 2 2 1 3 3 4 5 6 6 7 7 8 11 9 8 10 10 11 9 12
REMARK H PARENT 3 5
REMARK Flexibility Score: inf
ROOT
ATOM      1  C   UNL     1       8.174  -1.086   0.074  1.00  0.00     0.127 C 
ENDROOT
BRANCH   1   2
ATOM      2  C   UNL     1       7.874  -2.344   0.779  1.00  0.00     0.303 C 
ATOM      3  O   UNL     1       8.701  -3.294   0.718  1.00  0.00    -0.252 OA
BRANCH   2   4
ATOM      4  O   UNL     1       6.696  -2.523   1.520  1.00  0.00    -0.481 OA
ATOM      5  H   UNL     1       6.750  -2.488   2.529  1.00  0.00     0.296 HD
ENDBRANCH   2   4
ENDBRANCH   1   2
BRANCH   1   6
ATOM      6  C   UNL     1       6.963  -0.531  -0.653  1.00  0.00     0.047 C 
BRANCH   6   7
ATOM      7  C   UNL     1       6.683   0.867  -0.233  1.00  0.00    -0.047 A 
ATOM      8  C   UNL     1       7.669   1.636   0.369  1.00  0.00     0.004 A 
ATOM      9  C   UNL     1       5.449   1.467  -0.404  1.00  0.00     0.004 A 
ATOM     10  C   UNL     1       7.438   2.929   0.778  1.00  0.00     0.000 A 
ATOM     11  C   UNL     1       5.219   2.762   0.006  1.00  0.00     0.000 A 
ATOM     12  C   UNL     1       6.202   3.519   0.603  1.00  0.00     0.000 A 
ENDBRANCH   6   7
ENDBRANCH   1   6
TORSDOF 4
ENDMDL
MODEL 5
REMARK VINA RESULT:      -6.4      3.367      5.205
REMARK SMILES O=C(O)CCc1ccccc1
REMARK SMILES IDX 4 1 2 2 1 3 3 4 5 6 6 7 7 8 11 9 8 10 10 11 9 12
REMARK H PARENT 3 5
REMARK Flexibility Score: inf
ROOT
ATOM      1  C   UNL     1       4.987   1.840   0.818  1.00  0.00     0.127 C 
ENDROOT
BRANCH   1   2
ATOM      2  C   UNL     1       4.427   1.114   1.971  1.00  0.00     0.303 C 
ATOM      3  O   UNL     1       5.087   0.167   2.478  1.00  0.00    -0.252 OA
BRANCH   2   4
ATOM      4  O   UNL     1       3.182   1.442   2.528  1.00  0.00    -0.481 OA
ATOM      5  H   UNL     1       3.103   1.499   3.534  1.00  0.00     0.296 HD
ENDBRANCH   2   4
ENDBRANCH   1   2
BRANCH   1   6
ATOM      6  C   UNL     1       6.496   1.981   0.907  1.00  0.00     0.047 C 
BRANCH   6   7
ATOM      7  C   UNL     1       7.166   1.240  -0.193  1.00  0.00    -0.047 A 
ATOM      8  C   UNL     1       8.541   1.318  -0.365  1.00  0.00     0.004 A 
ATOM      9  C   UNL     1       6.474   0.454  -1.097  1.00  0.00     0.004 A 
ATOM     10  C   UNL     1       9.190   0.652  -1.380  1.00  0.00     0.000 A 
ATOM     11  C   UNL     1       7.125  -0.212  -2.113  1.00  0.00     0.000 A 
ATOM     12  C   UNL     1       8.489  -0.129  -2.277  1.00  0.00     0.000 A 
ENDBRANCH   6   7
ENDBRANCH   1   6
TORSDOF 4
ENDMDL
