@<TRIPOS>MOLECULE
/home/cewinharhar/GITHUB/reincatalyze/data/processed/docking_pred/2023-Apr-25-2248_maxeplen10_maxtrainstep1000_exh16_gamma099_lrac3e-4_lrcr1e-3/090474ec6ad34f6c7e6271970b3dfdf762d08d64_ligand_2.pdbqt
 12 12 0 0 0
SMALL
GASTEIGER

@<TRIPOS>ATOM
      1  C          8.3040   -0.8620   -1.8600 C.3     1  UNL1        0.1270
      2  C          8.3950   -1.9730   -2.8240 C.2     1  UNL1        0.3030
      3  O          9.5250   -2.4710   -3.0810 O.2     1  UNL1       -0.2520
      4  O          7.2650   -2.4990   -3.4680 O.3     1  UNL1       -0.4810
      5  H          7.3730   -3.3330   -4.0290 H       1  UNL1        0.2960
      6  C          6.8770   -0.6120   -1.4060 C.3     1  UNL1        0.0470
      7  C          6.7720    0.6730   -0.6670 C.2     1  UNL1       -0.0470
      8  C          5.5660    1.3570   -0.6050 C.2     1  UNL1        0.0040
      9  C          7.8470    1.2560   -0.0210 C.2     1  UNL1        0.0040
     10  C          5.4380    2.5530    0.0620 C.2     1  UNL1        0.0000
     11  C          7.7170    2.4550    0.6470 C.2     1  UNL1        0.0000
     12  C          6.5180    3.1270    0.7030 C.2     1  UNL1        0.0000
@<TRIPOS>BOND
     1     5     4    1
     2     4     2    1
     3     3     2    2
     4     2     1    1
     5     1     6    1
     6     6     7    1
     7     7     8    2
     8     7     9    1
     9     8    10    1
    10     9    11    2
    11    10    12    2
    12    11    12    1
