@<TRIPOS>MOLECULE
/home/cewinharhar/GITHUB/reincatalyze/data/processed/docking_pred/2023-Apr-25-2248_maxeplen10_maxtrainstep1000_exh16_gamma099_lrac3e-4_lrcr1e-3/090474ec6ad34f6c7e6271970b3dfdf762d08d64_ligand_2.pdbqt
 12 12 0 0 0
SMALL
GASTEIGER

@<TRIPOS>ATOM
      1  C          8.1740   -1.0860    0.0740 C.3     1  UNL1        0.1270
      2  C          7.8740   -2.3440    0.7790 C.2     1  UNL1        0.3030
      3  O          8.7010   -3.2940    0.7180 O.2     1  UNL1       -0.2520
      4  O          6.6960   -2.5230    1.5200 O.3     1  UNL1       -0.4810
      5  H          6.7500   -2.4880    2.5290 H       1  UNL1        0.2960
      6  C          6.9630   -0.5310   -0.6530 C.3     1  UNL1        0.0470
      7  C          6.6830    0.8670   -0.2330 C.2     1  UNL1       -0.0470
      8  C          7.6690    1.6360    0.3690 C.2     1  UNL1        0.0040
      9  C          5.4490    1.4670   -0.4040 C.2     1  UNL1        0.0040
     10  C          7.4380    2.9290    0.7780 C.2     1  UNL1        0.0000
     11  C          5.2190    2.7620    0.0060 C.2     1  UNL1        0.0000
     12  C          6.2020    3.5190    0.6030 C.2     1  UNL1        0.0000
@<TRIPOS>BOND
     1     6     7    1
     2     6     1    1
     3     9     7    2
     4     9    11    1
     5     7     8    1
     6    11    12    2
     7     1     2    1
     8     8    10    2
     9    12    10    1
    10     3     2    2
    11     2     4    1
    12     4     5    1
