@<TRIPOS>MOLECULE
/home/cewinharhar/GITHUB/reincatalyze/data/processed/docking_pred/2023-Apr-25-2248_maxeplen10_maxtrainstep1000_exh16_gamma099_lrac3e-4_lrcr1e-3/090474ec6ad34f6c7e6271970b3dfdf762d08d64_ligand_2.pdbqt
 12 12 0 0 0
SMALL
GASTEIGER

@<TRIPOS>ATOM
      1  C          4.9870    1.8400    0.8180 C.3     1  UNL1        0.1270
      2  C          4.4270    1.1140    1.9710 C.2     1  UNL1        0.3030
      3  O          5.0870    0.1670    2.4780 O.2     1  UNL1       -0.2520
      4  O          3.1820    1.4420    2.5280 O.3     1  UNL1       -0.4810
      5  H          3.1030    1.4990    3.5340 H       1  UNL1        0.2960
      6  C          6.4960    1.9810    0.9070 C.3     1  UNL1        0.0470
      7  C          7.1660    1.2400   -0.1930 C.2     1  UNL1       -0.0470
      8  C          8.5410    1.3180   -0.3650 C.2     1  UNL1        0.0040
      9  C          6.4740    0.4540   -1.0970 C.2     1  UNL1        0.0040
     10  C          9.1900    0.6520   -1.3800 C.2     1  UNL1        0.0000
     11  C          7.1250   -0.2120   -2.1130 C.2     1  UNL1        0.0000
     12  C          8.4890   -0.1290   -2.2770 C.2     1  UNL1        0.0000
@<TRIPOS>BOND
     1    12    11    2
     2    12    10    1
     3    11     9    1
     4    10     8    2
     5     9     7    2
     6     8     7    1
     7     7     6    1
     8     1     6    1
     9     1     2    1
    10     2     3    2
    11     2     4    1
    12     4     5    1
