@<TRIPOS>MOLECULE
/home/cewinharhar/GITHUB/reincatalyze/data/processed/docking_pred/2023-Apr-25-2248_maxeplen10_maxtrainstep1000_exh16_gamma099_lrac3e-4_lrcr1e-3/090474ec6ad34f6c7e6271970b3dfdf762d08d64_ligand_2.pdbqt
 12 12 0 0 0
SMALL
GASTEIGER

@<TRIPOS>ATOM
      1  C          8.4060   -0.6510   -2.1180 C.3     1  UNL1        0.1270
      2  C          8.4090   -1.9080   -2.8870 C.2     1  UNL1        0.3030
      3  O          7.3080   -2.4190   -3.2290 O.2     1  UNL1       -0.2520
      4  O          9.5970   -2.5560   -3.2550 O.3     1  UNL1       -0.4810
      5  H          9.6130   -3.0810   -4.1200 H       1  UNL1        0.2960
      6  C          7.0500    0.0320   -2.1400 C.3     1  UNL1        0.0470
      7  C          6.4750    0.1170   -0.7720 C.2     1  UNL1       -0.0470
      8  C          5.7780    1.2470   -0.3670 C.2     1  UNL1        0.0040
      9  C          6.6050   -0.8970    0.1590 C.2     1  UNL1        0.0040
     10  C          5.2420    1.3600    0.8960 C.2     1  UNL1        0.0000
     11  C          6.0670   -0.7810    1.4230 C.2     1  UNL1        0.0000
     12  C          5.3790    0.3430    1.8190 C.2     1  UNL1        0.0000
@<TRIPOS>BOND
     1     5     4    1
     2     4     2    1
     3     3     2    2
     4     2     1    1
     5     6     1    1
     6     6     7    1
     7     7     8    2
     8     7     9    1
     9     8    10    1
    10     9    11    2
    11    10    12    2
    12    11    12    1
