@<TRIPOS>MOLECULE
/home/cewinharhar/GITHUB/reincatalyze/data/processed/docking_pred/2023-Apr-25-2248_maxeplen10_maxtrainstep1000_exh16_gamma099_lrac3e-4_lrcr1e-3/090474ec6ad34f6c7e6271970b3dfdf762d08d64_ligand_2.pdbqt
 12 12 0 0 0
SMALL
GASTEIGER

@<TRIPOS>ATOM
      1  C          8.3940   -0.7060   -2.0500 C.3     1  UNL1        0.1270
      2  C          8.4000   -1.9290   -2.8710 C.2     1  UNL1        0.3030
      3  O          7.3000   -2.4230   -3.2430 O.2     1  UNL1       -0.2520
      4  O          9.5890   -2.5660   -3.2570 O.3     1  UNL1       -0.4810
      5  H         10.4200   -2.4150   -2.7010 H       1  UNL1        0.2960
      6  C          7.0580    0.0130   -2.1010 C.3     1  UNL1        0.0470
      7  C          6.4690    0.1410   -0.7420 C.2     1  UNL1       -0.0470
      8  C          6.5790   -0.8930    0.1770 C.2     1  UNL1        0.0040
      9  C          5.7840    1.2680   -0.3270 C.2     1  UNL1        0.0040
     10  C          6.0360   -0.8090    1.4380 C.2     1  UNL1        0.0000
     11  C          5.2410    1.3500    0.9370 C.2     1  UNL1        0.0000
     12  C          5.3530    0.3200    1.8430 C.2     1  UNL1        0.0000
@<TRIPOS>BOND
     1     4     2    1
     2     4     5    1
     3     3     2    2
     4     2     1    1
     5     6     1    1
     6     6     7    1
     7     7     9    2
     8     7     8    1
     9     9    11    1
    10     8    10    2
    11    11    12    2
    12    10    12    1
