@<TRIPOS>MOLECULE
/home/cewinharhar/GITHUB/reincatalyze/data/processed/docking_pred/2023-Apr-25-2248_maxeplen10_maxtrainstep1000_exh16_gamma099_lrac3e-4_lrcr1e-3/09c0e00cbaa22f287e1ef7d21129eabb08ea3244_ligand_2.pdbqt
 12 12 0 0 0
SMALL
GASTEIGER

@<TRIPOS>ATOM
      1  C          5.0000    1.7840    0.7310 C.3     1  UNL1        0.1270
      2  C          4.4810    1.1110    1.9340 C.2     1  UNL1        0.3030
      3  O          5.1780    0.2140    2.4820 O.2     1  UNL1       -0.2520
      4  O          3.2360    1.4330    2.4940 O.3     1  UNL1       -0.4810
      5  H          3.0030    1.0570    3.4030 H       1  UNL1        0.2960
      6  C          6.5140    1.8980    0.7450 C.3     1  UNL1        0.0470
      7  C          7.1190    1.0870   -0.3430 C.2     1  UNL1       -0.0470
      8  C          8.4700    1.1960   -0.6390 C.2     1  UNL1        0.0040
      9  C          6.3860    0.2020   -1.1140 C.2     1  UNL1        0.0040
     10  C          9.0580    0.4660   -1.6470 C.2     1  UNL1        0.0000
     11  C          6.9770   -0.5280   -2.1220 C.2     1  UNL1        0.0000
     12  C          8.3180   -0.4140   -2.4110 C.2     1  UNL1        0.0000
@<TRIPOS>BOND
     1    12    11    2
     2    12    10    1
     3    11     9    1
     4    10     8    2
     5     9     7    2
     6     8     7    1
     7     7     6    1
     8     1     6    1
     9     1     2    1
    10     2     3    2
    11     2     4    1
    12     4     5    1
