@<TRIPOS>MOLECULE
/home/cewinharhar/GITHUB/reincatalyze/data/processed/docking_pred/2023-Apr-25-2248_maxeplen10_maxtrainstep1000_exh16_gamma099_lrac3e-4_lrcr1e-3/09c0e00cbaa22f287e1ef7d21129eabb08ea3244_ligand_2.pdbqt
 12 12 0 0 0
SMALL
GASTEIGER

@<TRIPOS>ATOM
      1  C          4.9880    1.7720    0.7190 C.3     1  UNL1        0.1270
      2  C          4.4560    1.1120    1.9240 C.2     1  UNL1        0.3030
      3  O          5.1340    0.2020    2.4740 O.2     1  UNL1       -0.2520
      4  O          3.2190    1.4620    2.4850 O.3     1  UNL1       -0.4810
      5  H          2.7800    0.8170    3.1280 H       1  UNL1        0.2960
      6  C          6.4990    1.9130    0.7610 C.3     1  UNL1        0.0470
      7  C          7.1370    1.1340   -0.3320 C.2     1  UNL1       -0.0470
      8  C          6.3980    0.2330   -1.0840 C.2     1  UNL1        0.0040
      9  C          8.4780    1.2520   -0.6510 C.2     1  UNL1        0.0040
     10  C          6.9620   -0.5110   -2.0950 C.2     1  UNL1        0.0000
     11  C          9.0410    0.5070   -1.6640 C.2     1  UNL1        0.0000
     12  C          8.3010   -0.3870   -2.4050 C.2     1  UNL1        0.0000
@<TRIPOS>BOND
     1    12    10    2
     2    12    11    1
     3    10     8    1
     4    11     9    2
     5     8     7    2
     6     9     7    1
     7     7     6    1
     8     1     6    1
     9     1     2    1
    10     2     3    2
    11     2     4    1
    12     4     5    1
