@<TRIPOS>MOLECULE
/home/cewinharhar/GITHUB/reincatalyze/data/processed/docking_pred/2023-Apr-25-2248_maxeplen10_maxtrainstep1000_exh16_gamma099_lrac3e-4_lrcr1e-3/09c0e00cbaa22f287e1ef7d21129eabb08ea3244_ligand_2.pdbqt
 12 12 0 0 0
SMALL
GASTEIGER

@<TRIPOS>ATOM
      1  C          8.5020   -0.7690   -2.0000 C.3     1  UNL1        0.1270
      2  C          8.5150   -1.9740   -2.8470 C.2     1  UNL1        0.3030
      3  O          9.6120   -2.5550   -3.0680 O.2     1  UNL1       -0.2520
      4  O          7.3470   -2.5010   -3.4160 O.3     1  UNL1       -0.4810
      5  H          6.7260   -3.0430   -2.8310 H       1  UNL1        0.2960
      6  C          7.1840   -0.0210   -2.0860 C.3     1  UNL1        0.0470
      7  C          6.5500    0.0980   -0.7470 C.2     1  UNL1       -0.0470
      8  C          5.8590    1.2470   -0.3900 C.2     1  UNL1        0.0040
      9  C          6.6200   -0.9030    0.2050 C.2     1  UNL1        0.0040
     10  C          5.2700    1.3910    0.8450 C.2     1  UNL1        0.0000
     11  C          6.0300   -0.7560    1.4420 C.2     1  UNL1        0.0000
     12  C          5.3460    0.3870    1.7890 C.2     1  UNL1        0.0000
@<TRIPOS>BOND
     1     4     2    1
     2     4     5    1
     3     3     2    2
     4     2     1    1
     5     6     1    1
     6     6     7    1
     7     7     8    2
     8     7     9    1
     9     8    10    1
    10     9    11    2
    11    10    12    2
    12    11    12    1
