MODEL 1
REMARK VINA RESULT:      -7.0      0.000      0.000
REMARK SMILES O=C(O)CCc1ccccc1
REMARK SMILES IDX 4 1 2 2 1 3 3 4 5 6 6 7 7 8 11 9 8 10 10 11 9 12
REMARK H PARENT 3 5
REMARK Flexibility Score: inf
ROOT
ATOM      1  C   UNL     1       8.502  -0.769  -2.000  1.00  0.00     0.127 C 
ENDROOT
BRANCH   1   2
ATOM      2  C   UNL     1       8.515  -1.974  -2.847  1.00  0.00     0.303 C 
ATOM      3  O   UNL     1       9.612  -2.555  -3.068  1.00  0.00    -0.252 OA
BRANCH   2   4
ATOM      4  O   UNL     1       7.347  -2.501  -3.416  1.00  0.00    -0.481 OA
ATOM      5  H   UNL     1       6.726  -3.043  -2.831  1.00  0.00     0.296 HD
ENDBRANCH   2   4
ENDBRANCH   1   2
BRANCH   1   6
ATOM      6  C   UNL     1       7.184  -0.021  -2.086  1.00  0.00     0.047 C 
BRANCH   6   7
ATOM      7  C   UNL     1       6.550   0.098  -0.747  1.00  0.00    -0.047 A 
ATOM      8  C   UNL     1       5.859   1.247  -0.390  1.00  0.00     0.004 A 
ATOM      9  C   UNL     1       6.620  -0.903   0.205  1.00  0.00     0.004 A 
ATOM     10  C   UNL     1       5.270   1.391   0.845  1.00  0.00     0.000 A 
ATOM     11  C   UNL     1       6.030  -0.756   1.442  1.00  0.00     0.000 A 
ATOM     12  C   UNL     1       5.346   0.387   1.789  1.00  0.00     0.000 A 
ENDBRANCH   6   7
ENDBRANCH   1   6
TORSDOF 4
ENDMDL
MODEL 2
REMARK VINA RESULT:      -6.9      0.252      1.442
REMARK SMILES O=C(O)CCc1ccccc1
REMARK SMILES IDX 4 1 2 2 1 3 3 4 5 6 6 7 7 8 11 9 8 10 10 11 9 12
REMARK H PARENT 3 5
REMARK Flexibility Score: inf
ROOT
ATOM      1  C   UNL     1       8.376  -0.395  -2.118  1.00  0.00     0.127 C 
ENDROOT
BRANCH   1   2
ATOM      2  C   UNL     1       8.575  -1.707  -2.759  1.00  0.00     0.303 C 
ATOM      3  O   UNL     1       9.723  -2.230  -2.741  1.00  0.00    -0.252 OA
BRANCH   2   4
ATOM      4  O   UNL     1       7.531  -2.398  -3.390  1.00  0.00    -0.481 OA
ATOM      5  H   UNL     1       7.128  -3.198  -2.921  1.00  0.00     0.296 HD
ENDBRANCH   2   4
ENDBRANCH   1   2
BRANCH   1   6
ATOM      6  C   UNL     1       6.919   0.032  -2.126  1.00  0.00     0.047 C 
BRANCH   6   7
ATOM      7  C   UNL     1       6.396   0.164  -0.741  1.00  0.00    -0.047 A 
ATOM      8  C   UNL     1       6.532  -0.875   0.169  1.00  0.00     0.004 A 
ATOM      9  C   UNL     1       5.747   1.299  -0.291  1.00  0.00     0.004 A 
ATOM     10  C   UNL     1       6.049  -0.788   1.455  1.00  0.00     0.000 A 
ATOM     11  C   UNL     1       5.264   1.385   0.997  1.00  0.00     0.000 A 
ATOM     12  C   UNL     1       5.402   0.349   1.894  1.00  0.00     0.000 A 
ENDBRANCH   6   7
ENDBRANCH   1   6
TORSDOF 4
ENDMDL
MODEL 3
REMARK VINA RESULT:      -6.7      3.402      5.115
REMARK SMILES O=C(O)CCc1ccccc1
REMARK SMILES IDX 4 1 2 2 1 3 3 4 5 6 6 7 7 8 11 9 8 10 10 11 9 12
REMARK H PARENT 3 5
REMARK Flexibility Score: inf
ROOT
ATOM      1  C   UNL     1       4.988   1.772   0.719  1.00  0.00     0.127 C 
ENDROOT
BRANCH   1   2
ATOM      2  C   UNL     1       4.456   1.112   1.924  1.00  0.00     0.303 C 
ATOM      3  O   UNL     1       5.134   0.202   2.474  1.00  0.00    -0.252 OA
BRANCH   2   4
ATOM      4  O   UNL     1       3.219   1.462   2.485  1.00  0.00    -0.481 OA
ATOM      5  H   UNL     1       2.780   0.817   3.128  1.00  0.00     0.296 HD
ENDBRANCH   2   4
ENDBRANCH   1   2
BRANCH   1   6
ATOM      6  C   UNL     1       6.499   1.913   0.761  1.00  0.00     0.047 C 
BRANCH   6   7
ATOM      7  C   UNL     1       7.137   1.134  -0.332  1.00  0.00    -0.047 A 
ATOM      8  C   UNL     1       6.398   0.233  -1.084  1.00  0.00     0.004 A 
ATOM      9  C   UNL     1       8.478   1.252  -0.651  1.00  0.00     0.004 A 
ATOM     10  C   UNL     1       6.962  -0.511  -2.095  1.00  0.00     0.000 A 
ATOM     11  C   UNL     1       9.041   0.507  -1.664  1.00  0.00     0.000 A 
ATOM     12  C   UNL     1       8.301  -0.387  -2.405  1.00  0.00     0.000 A 
ENDBRANCH   6   7
ENDBRANCH   1   6
TORSDOF 4
ENDMDL
MODEL 4
REMARK VINA RESULT:      -6.6      3.393      5.099
REMARK SMILES O=C(O)CCc1ccccc1
REMARK SMILES IDX 4 1 2 2 1 3 3 4 5 6 6 7 7 8 11 9 8 10 10 11 9 12
REMARK H PARENT 3 5
REMARK Flexibility Score: inf
ROOT
ATOM      1  C   UNL     1       5.000   1.784   0.731  1.00  0.00     0.127 C 
ENDROOT
BRANCH   1   2
ATOM      2  C   UNL     1       4.481   1.111   1.934  1.00  0.00     0.303 C 
ATOM      3  O   UNL     1       5.178   0.214   2.482  1.00  0.00    -0.252 OA
BRANCH   2   4
ATOM      4  O   UNL     1       3.236   1.433   2.494  1.00  0.00    -0.481 OA
ATOM      5  H   UNL     1       3.003   1.057   3.403  1.00  0.00     0.296 HD
ENDBRANCH   2   4
ENDBRANCH   1   2
BRANCH   1   6
ATOM      6  C   UNL     1       6.514   1.898   0.745  1.00  0.00     0.047 C 
BRANCH   6   7
ATOM      7  C   UNL     1       7.119   1.087  -0.343  1.00  0.00    -0.047 A 
ATOM      8  C   UNL     1       8.470   1.196  -0.639  1.00  0.00     0.004 A 
ATOM      9  C   UNL     1       6.386   0.202  -1.114  1.00  0.00     0.004 A 
ATOM     10  C   UNL     1       9.058   0.466  -1.647  1.00  0.00     0.000 A 
ATOM     11  C   UNL     1       6.977  -0.528  -2.122  1.00  0.00     0.000 A 
ATOM     12  C   UNL     1       8.318  -0.414  -2.411  1.00  0.00     0.000 A 
ENDBRANCH   6   7
ENDBRANCH   1   6
TORSDOF 4
ENDMDL
MODEL 5
REMARK VINA RESULT:      -6.5      1.561      2.438
REMARK SMILES O=C(O)CCc1ccccc1
REMARK SMILES IDX 4 1 2 2 1 3 3 4 5 6 6 7 7 8 11 9 8 10 10 11 9 12
REMARK H PARENT 3 5
REMARK Flexibility Score: inf
ROOT
ATOM      1  C   UNL     1       8.590   0.323  -1.940  1.00  0.00     0.127 C 
ENDROOT
BRANCH   1   2
ATOM      2  C   UNL     1       9.750  -0.224  -1.214  1.00  0.00     0.303 C 
ATOM      3  O   UNL     1       9.740  -1.436  -0.868  1.00  0.00    -0.252 OA
BRANCH   2   4
ATOM      4  O   UNL     1      10.869   0.559  -0.894  1.00  0.00    -0.481 OA
ATOM      5  H   UNL     1      11.629   0.610  -1.559  1.00  0.00     0.296 HD
ENDBRANCH   2   4
ENDBRANCH   1   2
BRANCH   1   6
ATOM      6  C   UNL     1       7.344  -0.523  -1.749  1.00  0.00     0.047 C 
BRANCH   6   7
ATOM      7  C   UNL     1       6.581  -0.084  -0.551  1.00  0.00    -0.047 A 
ATOM      8  C   UNL     1       6.467  -0.911   0.557  1.00  0.00     0.004 A 
ATOM      9  C   UNL     1       5.945   1.141  -0.476  1.00  0.00     0.004 A 
ATOM     10  C   UNL     1       5.759  -0.539   1.677  1.00  0.00     0.000 A 
ATOM     11  C   UNL     1       5.237   1.513   0.647  1.00  0.00     0.000 A 
ATOM     12  C   UNL     1       5.127   0.686   1.742  1.00  0.00     0.000 A 
ENDBRANCH   6   7
ENDBRANCH   1   6
TORSDOF 4
ENDMDL
