@<TRIPOS>MOLECULE
/home/cewinharhar/GITHUB/reincatalyze/data/processed/docking_pred/2023-Apr-25-2248_maxeplen10_maxtrainstep1000_exh16_gamma099_lrac3e-4_lrcr1e-3/09c0e00cbaa22f287e1ef7d21129eabb08ea3244_ligand_2.pdbqt
 12 12 0 0 0
SMALL
GASTEIGER

@<TRIPOS>ATOM
      1  C          8.3760   -0.3950   -2.1180 C.3     1  UNL1        0.1270
      2  C          8.5750   -1.7070   -2.7590 C.2     1  UNL1        0.3030
      3  O          9.7230   -2.2300   -2.7410 O.2     1  UNL1       -0.2520
      4  O          7.5310   -2.3980   -3.3900 O.3     1  UNL1       -0.4810
      5  H          7.1280   -3.1980   -2.9210 H       1  UNL1        0.2960
      6  C          6.9190    0.0320   -2.1260 C.3     1  UNL1        0.0470
      7  C          6.3960    0.1640   -0.7410 C.2     1  UNL1       -0.0470
      8  C          6.5320   -0.8750    0.1690 C.2     1  UNL1        0.0040
      9  C          5.7470    1.2990   -0.2910 C.2     1  UNL1        0.0040
     10  C          6.0490   -0.7880    1.4550 C.2     1  UNL1        0.0000
     11  C          5.2640    1.3850    0.9970 C.2     1  UNL1        0.0000
     12  C          5.4020    0.3490    1.8940 C.2     1  UNL1        0.0000
@<TRIPOS>BOND
     1     4     5    1
     2     4     2    1
     3     2     3    2
     4     2     1    1
     5     6     1    1
     6     6     7    1
     7     7     9    2
     8     7     8    1
     9     9    11    1
    10     8    10    2
    11    11    12    2
    12    10    12    1
