@<TRIPOS>MOLECULE
/home/cewinharhar/GITHUB/reincatalyze/data/processed/docking_pred/2023-Apr-25-2248_maxeplen10_maxtrainstep1000_exh16_gamma099_lrac3e-4_lrcr1e-3/09c0e00cbaa22f287e1ef7d21129eabb08ea3244_ligand_2.pdbqt
 12 12 0 0 0
SMALL
GASTEIGER

@<TRIPOS>ATOM
      1  C          8.5900    0.3230   -1.9400 C.3     1  UNL1        0.1270
      2  C          9.7500   -0.2240   -1.2140 C.2     1  UNL1        0.3030
      3  O          9.7400   -1.4360   -0.8680 O.2     1  UNL1       -0.2520
      4  O         10.8690    0.5590   -0.8940 O.3     1  UNL1       -0.4810
      5  H         11.6290    0.6100   -1.5590 H       1  UNL1        0.2960
      6  C          7.3440   -0.5230   -1.7490 C.3     1  UNL1        0.0470
      7  C          6.5810   -0.0840   -0.5510 C.2     1  UNL1       -0.0470
      8  C          6.4670   -0.9110    0.5570 C.2     1  UNL1        0.0040
      9  C          5.9450    1.1410   -0.4760 C.2     1  UNL1        0.0040
     10  C          5.7590   -0.5390    1.6770 C.2     1  UNL1        0.0000
     11  C          5.2370    1.5130    0.6470 C.2     1  UNL1        0.0000
     12  C          5.1270    0.6860    1.7420 C.2     1  UNL1        0.0000
@<TRIPOS>BOND
     1     1     6    1
     2     1     2    1
     3     6     7    1
     4     5     4    1
     5     2     4    1
     6     2     3    2
     7     7     9    2
     8     7     8    1
     9     9    11    1
    10     8    10    2
    11    11    12    2
    12    10    12    1
