@<TRIPOS>MOLECULE
/home/cewinharhar/GITHUB/reincatalyze/data/processed/docking_pred/2023-Apr-25-2248_maxeplen10_maxtrainstep1000_exh16_gamma099_lrac3e-4_lrcr1e-3/0bc78f1071f374665515956646110ea4a2a90639_ligand_2.pdbqt
 12 12 0 0 0
SMALL
GASTEIGER

@<TRIPOS>ATOM
      1  C          8.4170   -0.6140   -2.1790 C.3     1  UNL1        0.1270
      2  C          8.4530   -1.8860   -2.9220 C.2     1  UNL1        0.3030
      3  O          9.5610   -2.4620   -3.0950 O.2     1  UNL1       -0.2520
      4  O          7.2950   -2.4800   -3.4440 O.3     1  UNL1       -0.4810
      5  H          7.3640   -2.9910   -4.3140 H       1  UNL1        0.2960
      6  C          7.0320    0.0090   -2.1740 C.3     1  UNL1        0.0470
      7  C          6.4870    0.0820   -0.7940 C.2     1  UNL1       -0.0470
      8  C          5.8350    1.2240   -0.3500 C.2     1  UNL1        0.0040
      9  C          6.6020   -0.9550    0.1130 C.2     1  UNL1        0.0040
     10  C          5.3280    1.3280    0.9250 C.2     1  UNL1        0.0000
     11  C          6.0940   -0.8500    1.3900 C.2     1  UNL1        0.0000
     12  C          5.4500    0.2870    1.8230 C.2     1  UNL1        0.0000
@<TRIPOS>BOND
     1     5     4    1
     2     4     2    1
     3     3     2    2
     4     2     1    1
     5     1     6    1
     6     6     7    1
     7     7     8    2
     8     7     9    1
     9     8    10    1
    10     9    11    2
    11    10    12    2
    12    11    12    1
