@<TRIPOS>MOLECULE
/home/cewinharhar/GITHUB/reincatalyze/data/processed/docking_pred/2023-Apr-25-2248_maxeplen10_maxtrainstep1000_exh16_gamma099_lrac3e-4_lrcr1e-3/0bc78f1071f374665515956646110ea4a2a90639_ligand_2.pdbqt
 12 12 0 0 0
SMALL
GASTEIGER

@<TRIPOS>ATOM
      1  C          5.0130    1.7790    0.7370 C.3     1  UNL1        0.1270
      2  C          4.4650    1.1090    1.9300 C.2     1  UNL1        0.3030
      3  O          5.1330    0.1900    2.4770 O.2     1  UNL1       -0.2520
      4  O          3.2240    1.4600    2.4800 O.3     1  UNL1       -0.4810
      5  H          2.9260    2.4240    2.4270 H       1  UNL1        0.2960
      6  C          6.5270    1.8840    0.7820 C.3     1  UNL1        0.0470
      7  C          7.1480    1.0980   -0.3150 C.2     1  UNL1       -0.0470
      8  C          6.4040    0.1730   -1.0320 C.2     1  UNL1        0.0040
      9  C          8.4780    1.2310   -0.6710 C.2     1  UNL1        0.0040
     10  C          6.9520   -0.5780   -2.0470 C.2     1  UNL1        0.0000
     11  C          9.0260    0.4780   -1.6870 C.2     1  UNL1        0.0000
     12  C          8.2810   -0.4380   -2.3940 C.2     1  UNL1        0.0000
@<TRIPOS>BOND
     1    12    10    2
     2    12    11    1
     3    10     8    1
     4    11     9    2
     5     8     7    2
     6     9     7    1
     7     7     6    1
     8     1     6    1
     9     1     2    1
    10     2     3    2
    11     2     4    1
    12     5     4    1
