MODEL 1
REMARK VINA RESULT:      -7.3      0.000      0.000
REMARK SMILES O=C(O)CCc1ccccc1
REMARK SMILES IDX 4 1 2 2 1 3 3 4 5 6 6 7 7 8 11 9 8 10 10 11 9 12
REMARK H PARENT 3 5
REMARK Flexibility Score: inf
ROOT
ATOM      1  C   UNL     1       8.417  -0.614  -2.179  1.00  0.00     0.127 C 
ENDROOT
BRANCH   1   2
ATOM      2  C   UNL     1       8.453  -1.886  -2.922  1.00  0.00     0.303 C 
ATOM      3  O   UNL     1       9.561  -2.462  -3.095  1.00  0.00    -0.252 OA
BRANCH   2   4
ATOM      4  O   UNL     1       7.295  -2.480  -3.444  1.00  0.00    -0.481 OA
ATOM      5  H   UNL     1       7.364  -2.991  -4.314  1.00  0.00     0.296 HD
ENDBRANCH   2   4
ENDBRANCH   1   2
BRANCH   1   6
ATOM      6  C   UNL     1       7.032   0.009  -2.174  1.00  0.00     0.047 C 
BRANCH   6   7
ATOM      7  C   UNL     1       6.487   0.082  -0.794  1.00  0.00    -0.047 A 
ATOM      8  C   UNL     1       5.835   1.224  -0.350  1.00  0.00     0.004 A 
ATOM      9  C   UNL     1       6.602  -0.955   0.113  1.00  0.00     0.004 A 
ATOM     10  C   UNL     1       5.328   1.328   0.925  1.00  0.00     0.000 A 
ATOM     11  C   UNL     1       6.094  -0.850   1.390  1.00  0.00     0.000 A 
ATOM     12  C   UNL     1       5.450   0.287   1.823  1.00  0.00     0.000 A 
ENDBRANCH   6   7
ENDBRANCH   1   6
TORSDOF 4
ENDMDL
MODEL 2
REMARK VINA RESULT:      -7.3      0.081      1.422
REMARK SMILES O=C(O)CCc1ccccc1
REMARK SMILES IDX 4 1 2 2 1 3 3 4 5 6 6 7 7 8 11 9 8 10 10 11 9 12
REMARK H PARENT 3 5
REMARK Flexibility Score: inf
ROOT
ATOM      1  C   UNL     1       8.393  -0.605  -2.187  1.00  0.00     0.127 C 
ENDROOT
BRANCH   1   2
ATOM      2  C   UNL     1       8.429  -1.889  -2.909  1.00  0.00     0.303 C 
ATOM      3  O   UNL     1       9.534  -2.479  -3.056  1.00  0.00    -0.252 OA
BRANCH   2   4
ATOM      4  O   UNL     1       7.274  -2.481  -3.439  1.00  0.00    -0.481 OA
ATOM      5  H   UNL     1       6.877  -2.094  -4.285  1.00  0.00     0.296 HD
ENDBRANCH   2   4
ENDBRANCH   1   2
BRANCH   1   6
ATOM      6  C   UNL     1       7.000  -0.002  -2.156  1.00  0.00     0.047 C 
BRANCH   6   7
ATOM      7  C   UNL     1       6.486   0.079  -0.764  1.00  0.00    -0.047 A 
ATOM      8  C   UNL     1       6.629  -0.992   0.107  1.00  0.00     0.004 A 
ATOM      9  C   UNL     1       5.839   1.196  -0.269  1.00  0.00     0.004 A 
ATOM     10  C   UNL     1       6.154  -0.952   1.398  1.00  0.00     0.000 A 
ATOM     11  C   UNL     1       5.364   1.235   1.024  1.00  0.00     0.000 A 
ATOM     12  C   UNL     1       5.509   0.168   1.882  1.00  0.00     0.000 A 
ENDBRANCH   6   7
ENDBRANCH   1   6
TORSDOF 4
ENDMDL
MODEL 3
REMARK VINA RESULT:      -6.8      3.400      5.094
REMARK SMILES O=C(O)CCc1ccccc1
REMARK SMILES IDX 4 1 2 2 1 3 3 4 5 6 6 7 7 8 11 9 8 10 10 11 9 12
REMARK H PARENT 3 5
REMARK Flexibility Score: inf
ROOT
ATOM      1  C   UNL     1       5.013   1.779   0.737  1.00  0.00     0.127 C 
ENDROOT
BRANCH   1   2
ATOM      2  C   UNL     1       4.465   1.109   1.930  1.00  0.00     0.303 C 
ATOM      3  O   UNL     1       5.133   0.190   2.477  1.00  0.00    -0.252 OA
BRANCH   2   4
ATOM      4  O   UNL     1       3.224   1.460   2.480  1.00  0.00    -0.481 OA
ATOM      5  H   UNL     1       2.926   2.424   2.427  1.00  0.00     0.296 HD
ENDBRANCH   2   4
ENDBRANCH   1   2
BRANCH   1   6
ATOM      6  C   UNL     1       6.527   1.884   0.782  1.00  0.00     0.047 C 
BRANCH   6   7
ATOM      7  C   UNL     1       7.148   1.098  -0.315  1.00  0.00    -0.047 A 
ATOM      8  C   UNL     1       6.404   0.173  -1.032  1.00  0.00     0.004 A 
ATOM      9  C   UNL     1       8.478   1.231  -0.671  1.00  0.00     0.004 A 
ATOM     10  C   UNL     1       6.952  -0.578  -2.047  1.00  0.00     0.000 A 
ATOM     11  C   UNL     1       9.026   0.478  -1.687  1.00  0.00     0.000 A 
ATOM     12  C   UNL     1       8.281  -0.438  -2.394  1.00  0.00     0.000 A 
ENDBRANCH   6   7
ENDBRANCH   1   6
TORSDOF 4
ENDMDL
MODEL 4
REMARK VINA RESULT:      -6.6      1.941      2.667
REMARK SMILES O=C(O)CCc1ccccc1
REMARK SMILES IDX 4 1 2 2 1 3 3 4 5 6 6 7 7 8 11 9 8 10 10 11 9 12
REMARK H PARENT 3 5
REMARK Flexibility Score: inf
ROOT
ATOM      1  C   UNL     1       8.277   0.177  -2.187  1.00  0.00     0.127 C 
ENDROOT
BRANCH   1   2
ATOM      2  C   UNL     1       9.396   0.353  -1.245  1.00  0.00     0.303 C 
ATOM      3  O   UNL     1       9.468  -0.397  -0.233  1.00  0.00    -0.252 OA
BRANCH   2   4
ATOM      4  O   UNL     1      10.388   1.325  -1.435  1.00  0.00    -0.481 OA
ATOM      5  H   UNL     1      11.196   1.089  -1.995  1.00  0.00     0.296 HD
ENDBRANCH   2   4
ENDBRANCH   1   2
BRANCH   1   6
ATOM      6  C   UNL     1       7.126  -0.600  -1.573  1.00  0.00     0.047 C 
BRANCH   6   7
ATOM      7  C   UNL     1       6.351   0.250  -0.633  1.00  0.00    -0.047 A 
ATOM      8  C   UNL     1       6.117  -0.167   0.670  1.00  0.00     0.004 A 
ATOM      9  C   UNL     1       5.820   1.475  -0.995  1.00  0.00     0.004 A 
ATOM     10  C   UNL     1       5.395   0.592   1.562  1.00  0.00     0.000 A 
ATOM     11  C   UNL     1       5.096   2.234  -0.100  1.00  0.00     0.000 A 
ATOM     12  C   UNL     1       4.868   1.813   1.190  1.00  0.00     0.000 A 
ENDBRANCH   6   7
ENDBRANCH   1   6
TORSDOF 4
ENDMDL
MODEL 5
REMARK VINA RESULT:      -6.6      3.824      4.984
REMARK SMILES O=C(O)CCc1ccccc1
REMARK SMILES IDX 4 1 2 2 1 3 3 4 5 6 6 7 7 8 11 9 8 10 10 11 9 12
REMARK H PARENT 3 5
REMARK Flexibility Score: inf
ROOT
ATOM      1  C   UNL     1       5.559   3.016   0.012  1.00  0.00     0.127 C 
ENDROOT
BRANCH   1   2
ATOM      2  C   UNL     1       6.345   3.929   0.861  1.00  0.00     0.303 C 
ATOM      3  O   UNL     1       7.103   4.775   0.312  1.00  0.00    -0.252 OA
BRANCH   2   4
ATOM      4  O   UNL     1       6.277   3.893   2.261  1.00  0.00    -0.481 OA
ATOM      5  H   UNL     1       5.713   3.177   2.699  1.00  0.00     0.296 HD
ENDBRANCH   2   4
ENDBRANCH   1   2
BRANCH   1   6
ATOM      6  C   UNL     1       4.850   1.946   0.823  1.00  0.00     0.047 C 
BRANCH   6   7
ATOM      7  C   UNL     1       5.644   0.690   0.858  1.00  0.00    -0.047 A 
ATOM      8  C   UNL     1       5.672  -0.099   1.999  1.00  0.00     0.004 A 
ATOM      9  C   UNL     1       6.392   0.248  -0.218  1.00  0.00     0.004 A 
ATOM     10  C   UNL     1       6.405  -1.261   2.066  1.00  0.00     0.000 A 
ATOM     11  C   UNL     1       7.126  -0.917  -0.149  1.00  0.00     0.000 A 
ATOM     12  C   UNL     1       7.150  -1.693   0.987  1.00  0.00     0.000 A 
ENDBRANCH   6   7
ENDBRANCH   1   6
TORSDOF 4
ENDMDL
