@<TRIPOS>MOLECULE
/home/cewinharhar/GITHUB/reincatalyze/data/processed/docking_pred/2023-Apr-25-2248_maxeplen10_maxtrainstep1000_exh16_gamma099_lrac3e-4_lrcr1e-3/0bc78f1071f374665515956646110ea4a2a90639_ligand_2.pdbqt
 12 12 0 0 0
SMALL
GASTEIGER

@<TRIPOS>ATOM
      1  C          8.3930   -0.6050   -2.1870 C.3     1  UNL1        0.1270
      2  C          8.4290   -1.8890   -2.9090 C.2     1  UNL1        0.3030
      3  O          9.5340   -2.4790   -3.0560 O.2     1  UNL1       -0.2520
      4  O          7.2740   -2.4810   -3.4390 O.3     1  UNL1       -0.4810
      5  H          6.8770   -2.0940   -4.2850 H       1  UNL1        0.2960
      6  C          7.0000   -0.0020   -2.1560 C.3     1  UNL1        0.0470
      7  C          6.4860    0.0790   -0.7640 C.2     1  UNL1       -0.0470
      8  C          6.6290   -0.9920    0.1070 C.2     1  UNL1        0.0040
      9  C          5.8390    1.1960   -0.2690 C.2     1  UNL1        0.0040
     10  C          6.1540   -0.9520    1.3980 C.2     1  UNL1        0.0000
     11  C          5.3640    1.2350    1.0240 C.2     1  UNL1        0.0000
     12  C          5.5090    0.1680    1.8820 C.2     1  UNL1        0.0000
@<TRIPOS>BOND
     1     5     4    1
     2     4     2    1
     3     3     2    2
     4     2     1    1
     5     1     6    1
     6     6     7    1
     7     7     9    2
     8     7     8    1
     9     9    11    1
    10     8    10    2
    11    11    12    2
    12    10    12    1
