@<TRIPOS>MOLECULE
/home/cewinharhar/GITHUB/reincatalyze/data/processed/docking_pred/2023-Apr-25-2248_maxeplen10_maxtrainstep1000_exh16_gamma099_lrac3e-4_lrcr1e-3/0bc78f1071f374665515956646110ea4a2a90639_ligand_2.pdbqt
 12 12 0 0 0
SMALL
GASTEIGER

@<TRIPOS>ATOM
      1  C          8.2770    0.1770   -2.1870 C.3     1  UNL1        0.1270
      2  C          9.3960    0.3530   -1.2450 C.2     1  UNL1        0.3030
      3  O          9.4680   -0.3970   -0.2330 O.2     1  UNL1       -0.2520
      4  O         10.3880    1.3250   -1.4350 O.3     1  UNL1       -0.4810
      5  H         11.1960    1.0890   -1.9950 H       1  UNL1        0.2960
      6  C          7.1260   -0.6000   -1.5730 C.3     1  UNL1        0.0470
      7  C          6.3510    0.2500   -0.6330 C.2     1  UNL1       -0.0470
      8  C          6.1170   -0.1670    0.6700 C.2     1  UNL1        0.0040
      9  C          5.8200    1.4750   -0.9950 C.2     1  UNL1        0.0040
     10  C          5.3950    0.5920    1.5620 C.2     1  UNL1        0.0000
     11  C          5.0960    2.2340   -0.1000 C.2     1  UNL1        0.0000
     12  C          4.8680    1.8130    1.1900 C.2     1  UNL1        0.0000
@<TRIPOS>BOND
     1     1     6    1
     2     1     2    1
     3     5     4    1
     4     6     7    1
     5     4     2    1
     6     2     3    2
     7     9     7    2
     8     9    11    1
     9     7     8    1
    10    11    12    2
    11     8    10    2
    12    12    10    1
