@<TRIPOS>MOLECULE
/home/cewinharhar/GITHUB/reincatalyze/data/processed/docking_pred/2023-Apr-25-2248_maxeplen10_maxtrainstep1000_exh16_gamma099_lrac3e-4_lrcr1e-3/0bc78f1071f374665515956646110ea4a2a90639_ligand_2.pdbqt
 12 12 0 0 0
SMALL
GASTEIGER

@<TRIPOS>ATOM
      1  C          5.5590    3.0160    0.0120 C.3     1  UNL1        0.1270
      2  C          6.3450    3.9290    0.8610 C.2     1  UNL1        0.3030
      3  O          7.1030    4.7750    0.3120 O.2     1  UNL1       -0.2520
      4  O          6.2770    3.8930    2.2610 O.3     1  UNL1       -0.4810
      5  H          5.7130    3.1770    2.6990 H       1  UNL1        0.2960
      6  C          4.8500    1.9460    0.8230 C.3     1  UNL1        0.0470
      7  C          5.6440    0.6900    0.8580 C.2     1  UNL1       -0.0470
      8  C          5.6720   -0.0990    1.9990 C.2     1  UNL1        0.0040
      9  C          6.3920    0.2480   -0.2180 C.2     1  UNL1        0.0040
     10  C          6.4050   -1.2610    2.0660 C.2     1  UNL1        0.0000
     11  C          7.1260   -0.9170   -0.1490 C.2     1  UNL1        0.0000
     12  C          7.1500   -1.6930    0.9870 C.2     1  UNL1        0.0000
@<TRIPOS>BOND
     1     9    11    1
     2     9     7    2
     3    11    12    2
     4     1     6    1
     5     1     2    1
     6     3     2    2
     7     6     7    1
     8     7     8    1
     9     2     4    1
    10    12    10    1
    11     8    10    2
    12     4     5    1
