MODEL 1
REMARK VINA RESULT:      -7.3      0.000      0.000
REMARK SMILES O=C(O)CCc1ccccc1
REMARK SMILES IDX 4 1 2 2 1 3 3 4 5 6 6 7 7 8 11 9 8 10 10 11 9 12
REMARK H PARENT 3 5
REMARK Flexibility Score: inf
ROOT
ATOM      1  C   UNL     1       8.422  -0.632  -2.169  1.00  0.00     0.127 C 
ENDROOT
BRANCH   1   2
ATOM      2  C   UNL     1       8.452  -1.901  -2.918  1.00  0.00     0.303 C 
ATOM      3  O   UNL     1       9.558  -2.481  -3.095  1.00  0.00    -0.252 OA
BRANCH   2   4
ATOM      4  O   UNL     1       7.291  -2.489  -3.440  1.00  0.00    -0.481 OA
ATOM      5  H   UNL     1       7.004  -2.242  -4.377  1.00  0.00     0.296 HD
ENDBRANCH   2   4
ENDBRANCH   1   2
BRANCH   1   6
ATOM      6  C   UNL     1       7.041  -0.001  -2.164  1.00  0.00     0.047 C 
BRANCH   6   7
ATOM      7  C   UNL     1       6.496   0.076  -0.784  1.00  0.00    -0.047 A 
ATOM      8  C   UNL     1       5.843   1.219  -0.344  1.00  0.00     0.004 A 
ATOM      9  C   UNL     1       6.612  -0.958   0.126  1.00  0.00     0.004 A 
ATOM     10  C   UNL     1       5.336   1.326   0.931  1.00  0.00     0.000 A 
ATOM     11  C   UNL     1       6.104  -0.850   1.403  1.00  0.00     0.000 A 
ATOM     12  C   UNL     1       5.459   0.287   1.832  1.00  0.00     0.000 A 
ENDBRANCH   6   7
ENDBRANCH   1   6
TORSDOF 4
ENDMDL
MODEL 2
REMARK VINA RESULT:      -7.3      0.101      1.423
REMARK SMILES O=C(O)CCc1ccccc1
REMARK SMILES IDX 4 1 2 2 1 3 3 4 5 6 6 7 7 8 11 9 8 10 10 11 9 12
REMARK H PARENT 3 5
REMARK Flexibility Score: inf
ROOT
ATOM      1  C   UNL     1       8.400  -0.623  -2.178  1.00  0.00     0.127 C 
ENDROOT
BRANCH   1   2
ATOM      2  C   UNL     1       8.428  -1.900  -2.914  1.00  0.00     0.303 C 
ATOM      3  O   UNL     1       9.531  -2.489  -3.075  1.00  0.00    -0.252 OA
BRANCH   2   4
ATOM      4  O   UNL     1       7.268  -2.485  -3.441  1.00  0.00    -0.481 OA
ATOM      5  H   UNL     1       6.835  -3.244  -2.932  1.00  0.00     0.296 HD
ENDBRANCH   2   4
ENDBRANCH   1   2
BRANCH   1   6
ATOM      6  C   UNL     1       7.011  -0.011  -2.144  1.00  0.00     0.047 C 
BRANCH   6   7
ATOM      7  C   UNL     1       6.493   0.056  -0.752  1.00  0.00    -0.047 A 
ATOM      8  C   UNL     1       6.635  -1.023   0.108  1.00  0.00     0.004 A 
ATOM      9  C   UNL     1       5.845   1.169  -0.248  1.00  0.00     0.004 A 
ATOM     10  C   UNL     1       6.157  -0.996   1.399  1.00  0.00     0.000 A 
ATOM     11  C   UNL     1       5.367   1.194   1.045  1.00  0.00     0.000 A 
ATOM     12  C   UNL     1       5.510   0.119   1.892  1.00  0.00     0.000 A 
ENDBRANCH   6   7
ENDBRANCH   1   6
TORSDOF 4
ENDMDL
MODEL 3
REMARK VINA RESULT:      -7.1      0.630      1.181
REMARK SMILES O=C(O)CCc1ccccc1
REMARK SMILES IDX 4 1 2 2 1 3 3 4 5 6 6 7 7 8 11 9 8 10 10 11 9 12
REMARK H PARENT 3 5
REMARK Flexibility Score: inf
ROOT
ATOM      1  C   UNL     1       8.222  -0.921  -1.897  1.00  0.00     0.127 C 
ENDROOT
BRANCH   1   2
ATOM      2  C   UNL     1       8.336  -2.023  -2.869  1.00  0.00     0.303 C 
ATOM      3  O   UNL     1       9.463  -2.553  -3.065  1.00  0.00    -0.252 OA
BRANCH   2   4
ATOM      4  O   UNL     1       7.231  -2.505  -3.585  1.00  0.00    -0.481 OA
ATOM      5  H   UNL     1       7.015  -3.492  -3.534  1.00  0.00     0.296 HD
ENDBRANCH   2   4
ENDBRANCH   1   2
BRANCH   1   6
ATOM      6  C   UNL     1       7.627  -1.379  -0.577  1.00  0.00     0.047 C 
BRANCH   6   7
ATOM      7  C   UNL     1       6.695  -0.358  -0.031  1.00  0.00    -0.047 A 
ATOM      8  C   UNL     1       6.332   0.746  -0.788  1.00  0.00     0.004 A 
ATOM      9  C   UNL     1       6.155  -0.442   1.239  1.00  0.00     0.004 A 
ATOM     10  C   UNL     1       5.480   1.714  -0.307  1.00  0.00     0.000 A 
ATOM     11  C   UNL     1       5.301   0.528   1.719  1.00  0.00     0.000 A 
ATOM     12  C   UNL     1       4.947   1.622   0.963  1.00  0.00     0.000 A 
ENDBRANCH   6   7
ENDBRANCH   1   6
TORSDOF 4
ENDMDL
MODEL 4
REMARK VINA RESULT:      -6.8      3.395      5.095
REMARK SMILES O=C(O)CCc1ccccc1
REMARK SMILES IDX 4 1 2 2 1 3 3 4 5 6 6 7 7 8 11 9 8 10 10 11 9 12
REMARK H PARENT 3 5
REMARK Flexibility Score: inf
ROOT
ATOM      1  C   UNL     1       5.040   1.769   0.744  1.00  0.00     0.127 C 
ENDROOT
BRANCH   1   2
ATOM      2  C   UNL     1       4.470   1.102   1.928  1.00  0.00     0.303 C 
ATOM      3  O   UNL     1       5.118   0.171   2.478  1.00  0.00    -0.252 OA
BRANCH   2   4
ATOM      4  O   UNL     1       3.229   1.470   2.468  1.00  0.00    -0.481 OA
ATOM      5  H   UNL     1       3.202   1.841   3.408  1.00  0.00     0.296 HD
ENDBRANCH   2   4
ENDBRANCH   1   2
BRANCH   1   6
ATOM      6  C   UNL     1       6.556   1.830   0.795  1.00  0.00     0.047 C 
BRANCH   6   7
ATOM      7  C   UNL     1       7.158   1.044  -0.313  1.00  0.00    -0.047 A 
ATOM      8  C   UNL     1       6.422   0.069  -0.970  1.00  0.00     0.004 A 
ATOM      9  C   UNL     1       8.462   1.226  -0.738  1.00  0.00     0.004 A 
ATOM     10  C   UNL     1       6.954  -0.684  -1.992  1.00  0.00     0.000 A 
ATOM     11  C   UNL     1       8.993   0.472  -1.762  1.00  0.00     0.000 A 
ATOM     12  C   UNL     1       8.257  -0.495  -2.408  1.00  0.00     0.000 A 
ENDBRANCH   6   7
ENDBRANCH   1   6
TORSDOF 4
ENDMDL
MODEL 5
REMARK VINA RESULT:      -6.6      1.959      2.357
REMARK SMILES O=C(O)CCc1ccccc1
REMARK SMILES IDX 4 1 2 2 1 3 3 4 5 6 6 7 7 8 11 9 8 10 10 11 9 12
REMARK H PARENT 3 5
REMARK Flexibility Score: inf
ROOT
ATOM      1  C   UNL     1       8.276   0.149  -2.178  1.00  0.00     0.127 C 
ENDROOT
BRANCH   1   2
ATOM      2  C   UNL     1       9.385   0.355  -1.229  1.00  0.00     0.303 C 
ATOM      3  O   UNL     1       9.451  -0.368  -0.198  1.00  0.00    -0.252 OA
BRANCH   2   4
ATOM      4  O   UNL     1      10.374   1.328  -1.434  1.00  0.00    -0.481 OA
ATOM      5  H   UNL     1      11.074   1.465  -0.717  1.00  0.00     0.296 HD
ENDBRANCH   2   4
ENDBRANCH   1   2
BRANCH   1   6
ATOM      6  C   UNL     1       7.133  -0.637  -1.562  1.00  0.00     0.047 C 
BRANCH   6   7
ATOM      7  C   UNL     1       6.353   0.206  -0.620  1.00  0.00    -0.047 A 
ATOM      8  C   UNL     1       5.834   1.427  -1.026  1.00  0.00     0.004 A 
ATOM      9  C   UNL     1       6.112  -0.163   0.691  1.00  0.00     0.004 A 
ATOM     10  C   UNL     1       5.116   2.236  -0.175  1.00  0.00     0.000 A 
ATOM     11  C   UNL     1       5.393   0.649   1.543  1.00  0.00     0.000 A 
ATOM     12  C   UNL     1       4.882   1.859   1.132  1.00  0.00     0.000 A 
ENDBRANCH   6   7
ENDBRANCH   1   6
TORSDOF 4
ENDMDL
