@<TRIPOS>MOLECULE
/home/cewinharhar/GITHUB/reincatalyze/data/processed/docking_pred/2023-Apr-25-2248_maxeplen10_maxtrainstep1000_exh16_gamma099_lrac3e-4_lrcr1e-3/0c0669ff2f8dcec30d9aff9f411b757c1c1ac29f_ligand_2.pdbqt
 12 12 0 0 0
SMALL
GASTEIGER

@<TRIPOS>ATOM
      1  C          8.2220   -0.9210   -1.8970 C.3     1  UNL1        0.1270
      2  C          8.3360   -2.0230   -2.8690 C.2     1  UNL1        0.3030
      3  O          9.4630   -2.5530   -3.0650 O.2     1  UNL1       -0.2520
      4  O          7.2310   -2.5050   -3.5850 O.3     1  UNL1       -0.4810
      5  H          7.0150   -3.4920   -3.5340 H       1  UNL1        0.2960
      6  C          7.6270   -1.3790   -0.5770 C.3     1  UNL1        0.0470
      7  C          6.6950   -0.3580   -0.0310 C.2     1  UNL1       -0.0470
      8  C          6.3320    0.7460   -0.7880 C.2     1  UNL1        0.0040
      9  C          6.1550   -0.4420    1.2390 C.2     1  UNL1        0.0040
     10  C          5.4800    1.7140   -0.3070 C.2     1  UNL1        0.0000
     11  C          5.3010    0.5280    1.7190 C.2     1  UNL1        0.0000
     12  C          4.9470    1.6220    0.9630 C.2     1  UNL1        0.0000
@<TRIPOS>BOND
     1     4     5    1
     2     4     2    1
     3     3     2    2
     4     2     1    1
     5     1     6    1
     6     8    10    1
     7     8     7    2
     8     6     7    1
     9    10    12    2
    10     7     9    1
    11    12    11    1
    12     9    11    2
