@<TRIPOS>MOLECULE
/home/cewinharhar/GITHUB/reincatalyze/data/processed/docking_pred/2023-Apr-25-2248_maxeplen10_maxtrainstep1000_exh16_gamma099_lrac3e-4_lrcr1e-3/0c0669ff2f8dcec30d9aff9f411b757c1c1ac29f_ligand_2.pdbqt
 12 12 0 0 0
SMALL
GASTEIGER

@<TRIPOS>ATOM
      1  C          8.4220   -0.6320   -2.1690 C.3     1  UNL1        0.1270
      2  C          8.4520   -1.9010   -2.9180 C.2     1  UNL1        0.3030
      3  O          9.5580   -2.4810   -3.0950 O.2     1  UNL1       -0.2520
      4  O          7.2910   -2.4890   -3.4400 O.3     1  UNL1       -0.4810
      5  H          7.0040   -2.2420   -4.3770 H       1  UNL1        0.2960
      6  C          7.0410   -0.0010   -2.1640 C.3     1  UNL1        0.0470
      7  C          6.4960    0.0760   -0.7840 C.2     1  UNL1       -0.0470
      8  C          5.8430    1.2190   -0.3440 C.2     1  UNL1        0.0040
      9  C          6.6120   -0.9580    0.1260 C.2     1  UNL1        0.0040
     10  C          5.3360    1.3260    0.9310 C.2     1  UNL1        0.0000
     11  C          6.1040   -0.8500    1.4030 C.2     1  UNL1        0.0000
     12  C          5.4590    0.2870    1.8320 C.2     1  UNL1        0.0000
@<TRIPOS>BOND
     1     5     4    1
     2     4     2    1
     3     3     2    2
     4     2     1    1
     5     1     6    1
     6     6     7    1
     7     7     8    2
     8     7     9    1
     9     8    10    1
    10     9    11    2
    11    10    12    2
    12    11    12    1
