@<TRIPOS>MOLECULE
/home/cewinharhar/GITHUB/reincatalyze/data/processed/docking_pred/2023-Apr-25-2248_maxeplen10_maxtrainstep1000_exh16_gamma099_lrac3e-4_lrcr1e-3/0c0669ff2f8dcec30d9aff9f411b757c1c1ac29f_ligand_2.pdbqt
 12 12 0 0 0
SMALL
GASTEIGER

@<TRIPOS>ATOM
      1  C          8.2760    0.1490   -2.1780 C.3     1  UNL1        0.1270
      2  C          9.3850    0.3550   -1.2290 C.2     1  UNL1        0.3030
      3  O          9.4510   -0.3680   -0.1980 O.2     1  UNL1       -0.2520
      4  O         10.3740    1.3280   -1.4340 O.3     1  UNL1       -0.4810
      5  H         11.0740    1.4650   -0.7170 H       1  UNL1        0.2960
      6  C          7.1330   -0.6370   -1.5620 C.3     1  UNL1        0.0470
      7  C          6.3530    0.2060   -0.6200 C.2     1  UNL1       -0.0470
      8  C          5.8340    1.4270   -1.0260 C.2     1  UNL1        0.0040
      9  C          6.1120   -0.1630    0.6910 C.2     1  UNL1        0.0040
     10  C          5.1160    2.2360   -0.1750 C.2     1  UNL1        0.0000
     11  C          5.3930    0.6490    1.5430 C.2     1  UNL1        0.0000
     12  C          4.8820    1.8590    1.1320 C.2     1  UNL1        0.0000
@<TRIPOS>BOND
     1     1     6    1
     2     1     2    1
     3     6     7    1
     4     4     2    1
     5     4     5    1
     6     2     3    2
     7     8     7    2
     8     8    10    1
     9     7     9    1
    10    10    12    2
    11     9    11    2
    12    12    11    1
