@<TRIPOS>MOLECULE
/home/cewinharhar/GITHUB/reincatalyze/data/processed/docking_pred/2023-Apr-25-2248_maxeplen10_maxtrainstep1000_exh16_gamma099_lrac3e-4_lrcr1e-3/0c0669ff2f8dcec30d9aff9f411b757c1c1ac29f_ligand_2.pdbqt
 12 12 0 0 0
SMALL
GASTEIGER

@<TRIPOS>ATOM
      1  C          8.4000   -0.6230   -2.1780 C.3     1  UNL1        0.1270
      2  C          8.4280   -1.9000   -2.9140 C.2     1  UNL1        0.3030
      3  O          9.5310   -2.4890   -3.0750 O.2     1  UNL1       -0.2520
      4  O          7.2680   -2.4850   -3.4410 O.3     1  UNL1       -0.4810
      5  H          6.8350   -3.2440   -2.9320 H       1  UNL1        0.2960
      6  C          7.0110   -0.0110   -2.1440 C.3     1  UNL1        0.0470
      7  C          6.4930    0.0560   -0.7520 C.2     1  UNL1       -0.0470
      8  C          6.6350   -1.0230    0.1080 C.2     1  UNL1        0.0040
      9  C          5.8450    1.1690   -0.2480 C.2     1  UNL1        0.0040
     10  C          6.1570   -0.9960    1.3990 C.2     1  UNL1        0.0000
     11  C          5.3670    1.1940    1.0450 C.2     1  UNL1        0.0000
     12  C          5.5100    0.1190    1.8920 C.2     1  UNL1        0.0000
@<TRIPOS>BOND
     1     4     5    1
     2     4     2    1
     3     3     2    2
     4     2     1    1
     5     1     6    1
     6     6     7    1
     7     7     9    2
     8     7     8    1
     9     9    11    1
    10     8    10    2
    11    11    12    2
    12    10    12    1
