@<TRIPOS>MOLECULE
/home/cewinharhar/GITHUB/reincatalyze/data/processed/docking_pred/2023-Apr-25-2248_maxeplen10_maxtrainstep1000_exh16_gamma099_lrac3e-4_lrcr1e-3/0c0669ff2f8dcec30d9aff9f411b757c1c1ac29f_ligand_2.pdbqt
 12 12 0 0 0
SMALL
GASTEIGER

@<TRIPOS>ATOM
      1  C          5.0400    1.7690    0.7440 C.3     1  UNL1        0.1270
      2  C          4.4700    1.1020    1.9280 C.2     1  UNL1        0.3030
      3  O          5.1180    0.1710    2.4780 O.2     1  UNL1       -0.2520
      4  O          3.2290    1.4700    2.4680 O.3     1  UNL1       -0.4810
      5  H          3.2020    1.8410    3.4080 H       1  UNL1        0.2960
      6  C          6.5560    1.8300    0.7950 C.3     1  UNL1        0.0470
      7  C          7.1580    1.0440   -0.3130 C.2     1  UNL1       -0.0470
      8  C          6.4220    0.0690   -0.9700 C.2     1  UNL1        0.0040
      9  C          8.4620    1.2260   -0.7380 C.2     1  UNL1        0.0040
     10  C          6.9540   -0.6840   -1.9920 C.2     1  UNL1        0.0000
     11  C          8.9930    0.4720   -1.7620 C.2     1  UNL1        0.0000
     12  C          8.2570   -0.4950   -2.4080 C.2     1  UNL1        0.0000
@<TRIPOS>BOND
     1    12    10    2
     2    12    11    1
     3    10     8    1
     4    11     9    2
     5     8     7    2
     6     9     7    1
     7     7     6    1
     8     1     6    1
     9     1     2    1
    10     2     4    1
    11     2     3    2
    12     4     5    1
