@<TRIPOS>MOLECULE
/home/cewinharhar/GITHUB/reincatalyze/data/processed/docking_pred/2023-Apr-25-2248_maxeplen10_maxtrainstep1000_exh16_gamma099_lrac3e-4_lrcr1e-3/0df60b8790b800bbceb9ee276e91b409308b6f54_ligand_2.pdbqt
 12 12 0 0 0
SMALL
GASTEIGER

@<TRIPOS>ATOM
      1  C          5.4990    2.9780    0.1330 C.3     1  UNL1        0.1270
      2  C          6.1880    4.0550    0.8650 C.2     1  UNL1        0.3030
      3  O          7.0230    4.7750    0.2520 O.2     1  UNL1       -0.2520
      4  O          5.9460    4.3100    2.2220 O.3     1  UNL1       -0.4810
      5  H          5.9840    5.2660    2.5490 H       1  UNL1        0.2960
      6  C          4.6890    2.0850    1.0550 C.3     1  UNL1        0.0470
      7  C          5.4640    0.8780    1.4460 C.2     1  UNL1       -0.0470
      8  C          4.9390   -0.3920    1.2600 C.2     1  UNL1        0.0040
      9  C          6.7230    0.9500    2.0140 C.2     1  UNL1        0.0040
     10  C          5.6270   -1.5280    1.6210 C.2     1  UNL1        0.0000
     11  C          7.4110   -0.1880    2.3750 C.2     1  UNL1        0.0000
     12  C          6.8820   -1.4450    2.1890 C.2     1  UNL1        0.0000
@<TRIPOS>BOND
     1     1     2    1
     2     1     6    1
     3     3     2    2
     4     2     4    1
     5     6     7    1
     6     8     7    2
     7     8    10    1
     8     7     9    1
     9    10    12    2
    10     9    11    2
    11    12    11    1
    12     4     5    1
