@<TRIPOS>MOLECULE
/home/cewinharhar/GITHUB/reincatalyze/data/processed/docking_pred/2023-Apr-25-2248_maxeplen10_maxtrainstep1000_exh16_gamma099_lrac3e-4_lrcr1e-3/0df60b8790b800bbceb9ee276e91b409308b6f54_ligand_2.pdbqt
 12 12 0 0 0
SMALL
GASTEIGER

@<TRIPOS>ATOM
      1  C          6.3320   -0.5470    2.7060 C.3     1  UNL1        0.1270
      2  C          7.1240   -1.4950    1.9020 C.2     1  UNL1        0.3030
      3  O          8.2890   -1.1710    1.5440 O.2     1  UNL1       -0.2520
      4  O          6.6270   -2.7500    1.5220 O.3     1  UNL1       -0.4810
      5  H          5.8190   -2.7860    0.9150 H       1  UNL1        0.2960
      6  C          5.1570    0.0210    1.9300 C.3     1  UNL1        0.0470
      7  C          5.5050    1.3300    1.3190 C.2     1  UNL1       -0.0470
      8  C          6.4730    2.1430    1.8910 C.2     1  UNL1        0.0040
      9  C          4.8920    1.8100    0.1760 C.2     1  UNL1        0.0040
     10  C          6.8110    3.3650    1.3550 C.2     1  UNL1        0.0000
     11  C          5.2310    3.0340   -0.3590 C.2     1  UNL1        0.0000
     12  C          6.1910    3.8350    0.2150 C.2     1  UNL1        0.0000
@<TRIPOS>BOND
     1    11     9    1
     2    11    12    2
     3     9     7    2
     4    12    10    1
     5     5     4    1
     6     7     8    1
     7     7     6    1
     8    10     8    2
     9     4     2    1
    10     3     2    2
    11     2     1    1
    12     6     1    1
