MODEL 1
REMARK VINA RESULT:      -5.5      0.000      0.000
REMARK SMILES O=C(O)CCc1ccccc1
REMARK SMILES IDX 4 1 2 2 1 3 3 4 5 6 6 7 7 8 11 9 8 10 10 11 9 12
REMARK H PARENT 3 5
REMARK Flexibility Score: inf
ROOT
ATOM      1  C   UNL     1       6.332  -0.547   2.706  1.00  0.00     0.127 C 
ENDROOT
BRANCH   1   2
ATOM      2  C   UNL     1       7.124  -1.495   1.902  1.00  0.00     0.303 C 
ATOM      3  O   UNL     1       8.289  -1.171   1.544  1.00  0.00    -0.252 OA
BRANCH   2   4
ATOM      4  O   UNL     1       6.627  -2.750   1.522  1.00  0.00    -0.481 OA
ATOM      5  H   UNL     1       5.819  -2.786   0.915  1.00  0.00     0.296 HD
ENDBRANCH   2   4
ENDBRANCH   1   2
BRANCH   1   6
ATOM      6  C   UNL     1       5.157   0.021   1.930  1.00  0.00     0.047 C 
BRANCH   6   7
ATOM      7  C   UNL     1       5.505   1.330   1.319  1.00  0.00    -0.047 A 
ATOM      8  C   UNL     1       6.473   2.143   1.891  1.00  0.00     0.004 A 
ATOM      9  C   UNL     1       4.892   1.810   0.176  1.00  0.00     0.004 A 
ATOM     10  C   UNL     1       6.811   3.365   1.355  1.00  0.00     0.000 A 
ATOM     11  C   UNL     1       5.231   3.034  -0.359  1.00  0.00     0.000 A 
ATOM     12  C   UNL     1       6.191   3.835   0.215  1.00  0.00     0.000 A 
ENDBRANCH   6   7
ENDBRANCH   1   6
TORSDOF 4
ENDMDL
MODEL 2
REMARK VINA RESULT:      -5.5      0.150      1.425
REMARK SMILES O=C(O)CCc1ccccc1
REMARK SMILES IDX 4 1 2 2 1 3 3 4 5 6 6 7 7 8 11 9 8 10 10 11 9 12
REMARK H PARENT 3 5
REMARK Flexibility Score: inf
ROOT
ATOM      1  C   UNL     1       6.528  -0.558   2.725  1.00  0.00     0.127 C 
ENDROOT
BRANCH   1   2
ATOM      2  C   UNL     1       7.227  -1.543   1.881  1.00  0.00     0.303 C 
ATOM      3  O   UNL     1       8.387  -1.277   1.463  1.00  0.00    -0.252 OA
BRANCH   2   4
ATOM      4  O   UNL     1       6.647  -2.769   1.526  1.00  0.00    -0.481 OA
ATOM      5  H   UNL     1       5.793  -3.052   1.987  1.00  0.00     0.296 HD
ENDBRANCH   2   4
ENDBRANCH   1   2
BRANCH   1   6
ATOM      6  C   UNL     1       5.281  -0.010   2.055  1.00  0.00     0.047 C 
BRANCH   6   7
ATOM      7  C   UNL     1       5.554   1.302   1.413  1.00  0.00    -0.047 A 
ATOM      8  C   UNL     1       4.829   1.713   0.303  1.00  0.00     0.004 A 
ATOM      9  C   UNL     1       6.532   2.168   1.867  1.00  0.00     0.004 A 
ATOM     10  C   UNL     1       5.065   2.917  -0.319  1.00  0.00     0.000 A 
ATOM     11  C   UNL     1       6.767   3.374   1.243  1.00  0.00     0.000 A 
ATOM     12  C   UNL     1       6.044   3.774   0.141  1.00  0.00     0.000 A 
ENDBRANCH   6   7
ENDBRANCH   1   6
TORSDOF 4
ENDMDL
MODEL 3
REMARK VINA RESULT:      -3.7      2.915      4.713
REMARK SMILES O=C(O)CCc1ccccc1
REMARK SMILES IDX 4 1 2 2 1 3 3 4 5 6 6 7 7 8 11 9 8 10 10 11 9 12
REMARK H PARENT 3 5
REMARK Flexibility Score: inf
ROOT
ATOM      1  C   UNL     1       5.499   2.978   0.133  1.00  0.00     0.127 C 
ENDROOT
BRANCH   1   2
ATOM      2  C   UNL     1       6.188   4.055   0.865  1.00  0.00     0.303 C 
ATOM      3  O   UNL     1       7.023   4.775   0.252  1.00  0.00    -0.252 OA
BRANCH   2   4
ATOM      4  O   UNL     1       5.946   4.310   2.222  1.00  0.00    -0.481 OA
ATOM      5  H   UNL     1       5.984   5.266   2.549  1.00  0.00     0.296 HD
ENDBRANCH   2   4
ENDBRANCH   1   2
BRANCH   1   6
ATOM      6  C   UNL     1       4.689   2.085   1.055  1.00  0.00     0.047 C 
BRANCH   6   7
ATOM      7  C   UNL     1       5.464   0.878   1.446  1.00  0.00    -0.047 A 
ATOM      8  C   UNL     1       4.939  -0.392   1.260  1.00  0.00     0.004 A 
ATOM      9  C   UNL     1       6.723   0.950   2.014  1.00  0.00     0.004 A 
ATOM     10  C   UNL     1       5.627  -1.528   1.621  1.00  0.00     0.000 A 
ATOM     11  C   UNL     1       7.411  -0.188   2.375  1.00  0.00     0.000 A 
ATOM     12  C   UNL     1       6.882  -1.445   2.189  1.00  0.00     0.000 A 
ENDBRANCH   6   7
ENDBRANCH   1   6
TORSDOF 4
ENDMDL
MODEL 4
REMARK VINA RESULT:      -3.7     11.795     14.365
REMARK SMILES O=C(O)CCc1ccccc1
REMARK SMILES IDX 4 1 2 2 1 3 3 4 5 6 6 7 7 8 11 9 8 10 10 11 9 12
REMARK H PARENT 3 5
REMARK Flexibility Score: inf
ROOT
ATOM      1  C   UNL     1       8.084  -6.548  11.002  1.00  0.00     0.127 C 
ENDROOT
BRANCH   1   2
ATOM      2  C   UNL     1       8.367  -5.102  11.015  1.00  0.00     0.303 C 
ATOM      3  O   UNL     1       9.278  -4.663  11.769  1.00  0.00    -0.252 OA
BRANCH   2   4
ATOM      4  O   UNL     1       7.659  -4.193  10.215  1.00  0.00    -0.481 OA
ATOM      5  H   UNL     1       7.168  -4.544   9.404  1.00  0.00     0.296 HD
ENDBRANCH   2   4
ENDBRANCH   1   2
BRANCH   1   6
ATOM      6  C   UNL     1       8.705  -7.265  12.187  1.00  0.00     0.047 C 
BRANCH   6   7
ATOM      7  C   UNL     1       9.539  -8.411  11.738  1.00  0.00    -0.047 A 
ATOM      8  C   UNL     1       9.402  -9.660  12.327  1.00  0.00     0.004 A 
ATOM      9  C   UNL     1      10.487  -8.300  10.737  1.00  0.00     0.004 A 
ATOM     10  C   UNL     1      10.166 -10.737  11.941  1.00  0.00     0.000 A 
ATOM     11  C   UNL     1      11.251  -9.380  10.352  1.00  0.00     0.000 A 
ATOM     12  C   UNL     1      11.110 -10.616  10.942  1.00  0.00     0.000 A 
ENDBRANCH   6   7
ENDBRANCH   1   6
TORSDOF 4
ENDMDL
MODEL 5
REMARK VINA RESULT:      -3.6     11.551     13.682
REMARK SMILES O=C(O)CCc1ccccc1
REMARK SMILES IDX 4 1 2 2 1 3 3 4 5 6 6 7 7 8 11 9 8 10 10 11 9 12
REMARK H PARENT 3 5
REMARK Flexibility Score: inf
ROOT
ATOM      1  C   UNL     1       8.164  -6.272  10.644  1.00  0.00     0.127 C 
ENDROOT
BRANCH   1   2
ATOM      2  C   UNL     1       8.181  -4.843  11.007  1.00  0.00     0.303 C 
ATOM      3  O   UNL     1       8.825  -4.479  12.028  1.00  0.00    -0.252 OA
BRANCH   2   4
ATOM      4  O   UNL     1       7.505  -3.872  10.254  1.00  0.00    -0.481 OA
ATOM      5  H   UNL     1       7.994  -3.428   9.488  1.00  0.00     0.296 HD
ENDBRANCH   2   4
ENDBRANCH   1   2
BRANCH   1   6
ATOM      6  C   UNL     1       8.802  -7.142  11.711  1.00  0.00     0.047 C 
BRANCH   6   7
ATOM      7  C   UNL     1      10.052  -7.770  11.209  1.00  0.00    -0.047 A 
ATOM      8  C   UNL     1      11.119  -6.987  10.790  1.00  0.00     0.004 A 
ATOM      9  C   UNL     1      10.219  -9.140  11.122  1.00  0.00     0.004 A 
ATOM     10  C   UNL     1      12.285  -7.538  10.311  1.00  0.00     0.000 A 
ATOM     11  C   UNL     1      11.389  -9.690  10.642  1.00  0.00     0.000 A 
ATOM     12  C   UNL     1      12.441  -8.907  10.227  1.00  0.00     0.000 A 
ENDBRANCH   6   7
ENDBRANCH   1   6
TORSDOF 4
ENDMDL
