@<TRIPOS>MOLECULE
/home/cewinharhar/GITHUB/reincatalyze/data/processed/docking_pred/2023-Apr-25-2248_maxeplen10_maxtrainstep1000_exh16_gamma099_lrac3e-4_lrcr1e-3/0df60b8790b800bbceb9ee276e91b409308b6f54_ligand_2.pdbqt
 12 12 0 0 0
SMALL
GASTEIGER

@<TRIPOS>ATOM
      1  C          6.5280   -0.5580    2.7250 C.3     1  UNL1        0.1270
      2  C          7.2270   -1.5430    1.8810 C.2     1  UNL1        0.3030
      3  O          8.3870   -1.2770    1.4630 O.2     1  UNL1       -0.2520
      4  O          6.6470   -2.7690    1.5260 O.3     1  UNL1       -0.4810
      5  H          5.7930   -3.0520    1.9870 H       1  UNL1        0.2960
      6  C          5.2810   -0.0100    2.0550 C.3     1  UNL1        0.0470
      7  C          5.5540    1.3020    1.4130 C.2     1  UNL1       -0.0470
      8  C          4.8290    1.7130    0.3030 C.2     1  UNL1        0.0040
      9  C          6.5320    2.1680    1.8670 C.2     1  UNL1        0.0040
     10  C          5.0650    2.9170   -0.3190 C.2     1  UNL1        0.0000
     11  C          6.7670    3.3740    1.2430 C.2     1  UNL1        0.0000
     12  C          6.0440    3.7740    0.1410 C.2     1  UNL1        0.0000
@<TRIPOS>BOND
     1    10    12    2
     2    10     8    1
     3    12    11    1
     4     8     7    2
     5    11     9    2
     6     7     9    1
     7     7     6    1
     8     3     2    2
     9     4     2    1
    10     4     5    1
    11     2     1    1
    12     6     1    1
