@<TRIPOS>MOLECULE
/home/cewinharhar/GITHUB/reincatalyze/data/processed/docking_pred/2023-Apr-25-2248_maxeplen10_maxtrainstep1000_exh16_gamma099_lrac3e-4_lrcr1e-3/0df60b8790b800bbceb9ee276e91b409308b6f54_ligand_2.pdbqt
 12 12 0 0 0
SMALL
GASTEIGER

@<TRIPOS>ATOM
      1  C          8.1640   -6.2720   10.6440 C.3     1  UNL1        0.1270
      2  C          8.1810   -4.8430   11.0070 C.2     1  UNL1        0.3030
      3  O          8.8250   -4.4790   12.0280 O.2     1  UNL1       -0.2520
      4  O          7.5050   -3.8720   10.2540 O.3     1  UNL1       -0.4810
      5  H          7.9940   -3.4280    9.4880 H       1  UNL1        0.2960
      6  C          8.8020   -7.1420   11.7110 C.3     1  UNL1        0.0470
      7  C         10.0520   -7.7700   11.2090 C.2     1  UNL1       -0.0470
      8  C         11.1190   -6.9870   10.7900 C.2     1  UNL1        0.0040
      9  C         10.2190   -9.1400   11.1220 C.2     1  UNL1        0.0040
     10  C         12.2850   -7.5380   10.3110 C.2     1  UNL1        0.0000
     11  C         11.3890   -9.6900   10.6420 C.2     1  UNL1        0.0000
     12  C         12.4410   -8.9070   10.2270 C.2     1  UNL1        0.0000
@<TRIPOS>BOND
     1     5     4    1
     2    12    10    2
     3    12    11    1
     4     4     2    1
     5    10     8    1
     6    11     9    2
     7     1     2    1
     8     1     6    1
     9     8     7    2
    10     2     3    2
    11     9     7    1
    12     7     6    1
