@<TRIPOS>MOLECULE
/home/cewinharhar/GITHUB/reincatalyze/data/processed/docking_pred/2023-Apr-25-2248_maxeplen10_maxtrainstep1000_exh16_gamma099_lrac3e-4_lrcr1e-3/0df60b8790b800bbceb9ee276e91b409308b6f54_ligand_2.pdbqt
 12 12 0 0 0
SMALL
GASTEIGER

@<TRIPOS>ATOM
      1  C          8.0840   -6.5480   11.0020 C.3     1  UNL1        0.1270
      2  C          8.3670   -5.1020   11.0150 C.2     1  UNL1        0.3030
      3  O          9.2780   -4.6630   11.7690 O.2     1  UNL1       -0.2520
      4  O          7.6590   -4.1930   10.2150 O.3     1  UNL1       -0.4810
      5  H          7.1680   -4.5440    9.4040 H       1  UNL1        0.2960
      6  C          8.7050   -7.2650   12.1870 C.3     1  UNL1        0.0470
      7  C          9.5390   -8.4110   11.7380 C.2     1  UNL1       -0.0470
      8  C          9.4020   -9.6600   12.3270 C.2     1  UNL1        0.0040
      9  C         10.4870   -8.3000   10.7370 C.2     1  UNL1        0.0040
     10  C         10.1660  -10.7370   11.9410 C.2     1  UNL1        0.0000
     11  C         11.2510   -9.3800   10.3520 C.2     1  UNL1        0.0000
     12  C         11.1100  -10.6160   10.9420 C.2     1  UNL1        0.0000
@<TRIPOS>BOND
     1     5     4    1
     2     4     2    1
     3    11     9    1
     4    11    12    2
     5     9     7    2
     6    12    10    1
     7     1     2    1
     8     1     6    1
     9     2     3    2
    10     7     6    1
    11     7     8    1
    12    10     8    2
