MODEL 1
REMARK VINA RESULT:      -7.3      0.000      0.000
REMARK SMILES O=C(O)CCc1ccccc1
REMARK SMILES IDX 4 1 2 2 1 3 3 4 5 6 6 7 7 8 11 9 8 10 10 11 9 12
REMARK H PARENT 3 5
REMARK Flexibility Score: inf
ROOT
ATOM      1  C   UNL     1       8.385  -0.788  -1.949  1.00  0.00     0.127 C 
ENDROOT
BRANCH   1   2
ATOM      2  C   UNL     1       8.378  -1.965  -2.835  1.00  0.00     0.303 C 
ATOM      3  O   UNL     1       7.275  -2.408  -3.256  1.00  0.00    -0.252 OA
BRANCH   2   4
ATOM      4  O   UNL     1       9.558  -2.611  -3.230  1.00  0.00    -0.481 OA
ATOM      5  H   UNL     1      10.378  -2.519  -2.646  1.00  0.00     0.296 HD
ENDBRANCH   2   4
ENDBRANCH   1   2
BRANCH   1   6
ATOM      6  C   UNL     1       7.100   0.015  -2.050  1.00  0.00     0.047 C 
BRANCH   6   7
ATOM      7  C   UNL     1       6.473   0.188  -0.714  1.00  0.00    -0.047 A 
ATOM      8  C   UNL     1       6.574  -0.806   0.249  1.00  0.00     0.004 A 
ATOM      9  C   UNL     1       5.761   1.319  -0.362  1.00  0.00     0.004 A 
ATOM     10  C   UNL     1       5.997  -0.681   1.492  1.00  0.00     0.000 A 
ATOM     11  C   UNL     1       5.183   1.444   0.883  1.00  0.00     0.000 A 
ATOM     12  C   UNL     1       5.286   0.452   1.833  1.00  0.00     0.000 A 
ENDBRANCH   6   7
ENDBRANCH   1   6
TORSDOF 4
ENDMDL
MODEL 2
REMARK VINA RESULT:      -7.2      0.217      1.433
REMARK SMILES O=C(O)CCc1ccccc1
REMARK SMILES IDX 4 1 2 2 1 3 3 4 5 6 6 7 7 8 11 9 8 10 10 11 9 12
REMARK H PARENT 3 5
REMARK Flexibility Score: inf
ROOT
ATOM      1  C   UNL     1       8.380  -0.585  -2.204  1.00  0.00     0.127 C 
ENDROOT
BRANCH   1   2
ATOM      2  C   UNL     1       8.376  -1.878  -2.910  1.00  0.00     0.303 C 
ATOM      3  O   UNL     1       7.274  -2.390  -3.245  1.00  0.00    -0.252 OA
BRANCH   2   4
ATOM      4  O   UNL     1       9.560  -2.561  -3.226  1.00  0.00    -0.481 OA
ATOM      5  H   UNL     1       9.498  -3.529  -3.512  1.00  0.00     0.296 HD
ENDBRANCH   2   4
ENDBRANCH   1   2
BRANCH   1   6
ATOM      6  C   UNL     1       6.999   0.044  -2.151  1.00  0.00     0.047 C 
BRANCH   6   7
ATOM      7  C   UNL     1       6.481   0.075  -0.758  1.00  0.00    -0.047 A 
ATOM      8  C   UNL     1       5.839   1.203  -0.268  1.00  0.00     0.004 A 
ATOM      9  C   UNL     1       6.614  -0.990   0.114  1.00  0.00     0.004 A 
ATOM     10  C   UNL     1       5.357   1.267   1.020  1.00  0.00     0.000 A 
ATOM     11  C   UNL     1       6.130  -0.924   1.403  1.00  0.00     0.000 A 
ATOM     12  C   UNL     1       5.496   0.199   1.883  1.00  0.00     0.000 A 
ENDBRANCH   6   7
ENDBRANCH   1   6
TORSDOF 4
ENDMDL
MODEL 3
REMARK VINA RESULT:      -7.1      0.604      1.460
REMARK SMILES O=C(O)CCc1ccccc1
REMARK SMILES IDX 4 1 2 2 1 3 3 4 5 6 6 7 7 8 11 9 8 10 10 11 9 12
REMARK H PARENT 3 5
REMARK Flexibility Score: inf
ROOT
ATOM      1  C   UNL     1       8.131  -0.922  -1.916  1.00  0.00     0.127 C 
ENDROOT
BRANCH   1   2
ATOM      2  C   UNL     1       8.333  -2.011  -2.888  1.00  0.00     0.303 C 
ATOM      3  O   UNL     1       9.502  -2.434  -3.099  1.00  0.00    -0.252 OA
BRANCH   2   4
ATOM      4  O   UNL     1       7.268  -2.596  -3.588  1.00  0.00    -0.481 OA
ATOM      5  H   UNL     1       6.493  -2.973  -3.061  1.00  0.00     0.296 HD
ENDBRANCH   2   4
ENDBRANCH   1   2
BRANCH   1   6
ATOM      6  C   UNL     1       7.369  -1.383  -0.688  1.00  0.00     0.047 C 
BRANCH   6   7
ATOM      7  C   UNL     1       6.541  -0.283  -0.129  1.00  0.00    -0.047 A 
ATOM      8  C   UNL     1       6.067  -0.344   1.173  1.00  0.00     0.004 A 
ATOM      9  C   UNL     1       6.193   0.838  -0.862  1.00  0.00     0.004 A 
ATOM     10  C   UNL     1       5.290   0.654   1.716  1.00  0.00     0.000 A 
ATOM     11  C   UNL     1       5.414   1.836  -0.317  1.00  0.00     0.000 A 
ATOM     12  C   UNL     1       4.947   1.767   0.976  1.00  0.00     0.000 A 
ENDBRANCH   6   7
ENDBRANCH   1   6
TORSDOF 4
ENDMDL
MODEL 4
REMARK VINA RESULT:      -6.9      0.823      1.889
REMARK SMILES O=C(O)CCc1ccccc1
REMARK SMILES IDX 4 1 2 2 1 3 3 4 5 6 6 7 7 8 11 9 8 10 10 11 9 12
REMARK H PARENT 3 5
REMARK Flexibility Score: inf
ROOT
ATOM      1  C   UNL     1       8.180  -0.225  -2.598  1.00  0.00     0.127 C 
ENDROOT
BRANCH   1   2
ATOM      2  C   UNL     1       8.377  -1.638  -2.969  1.00  0.00     0.303 C 
ATOM      3  O   UNL     1       9.531  -2.139  -2.881  1.00  0.00    -0.252 OA
BRANCH   2   4
ATOM      4  O   UNL     1       7.323  -2.448  -3.415  1.00  0.00    -0.481 OA
ATOM      5  H   UNL     1       7.521  -3.166  -4.098  1.00  0.00     0.296 HD
ENDBRANCH   2   4
ENDBRANCH   1   2
BRANCH   1   6
ATOM      6  C   UNL     1       8.707   0.083  -1.208  1.00  0.00     0.047 C 
BRANCH   6   7
ATOM      7  C   UNL     1       7.593   0.211  -0.233  1.00  0.00    -0.047 A 
ATOM      8  C   UNL     1       6.519   1.051  -0.491  1.00  0.00     0.004 A 
ATOM      9  C   UNL     1       7.566  -0.475   0.967  1.00  0.00     0.004 A 
ATOM     10  C   UNL     1       5.478   1.200   0.396  1.00  0.00     0.000 A 
ATOM     11  C   UNL     1       6.523  -0.326   1.855  1.00  0.00     0.000 A 
ATOM     12  C   UNL     1       5.461   0.511   1.592  1.00  0.00     0.000 A 
ENDBRANCH   6   7
ENDBRANCH   1   6
TORSDOF 4
ENDMDL
MODEL 5
REMARK VINA RESULT:      -6.8      3.319      5.159
REMARK SMILES O=C(O)CCc1ccccc1
REMARK SMILES IDX 4 1 2 2 1 3 3 4 5 6 6 7 7 8 11 9 8 10 10 11 9 12
REMARK H PARENT 3 5
REMARK Flexibility Score: inf
ROOT
ATOM      1  C   UNL     1       5.065   1.762   0.759  1.00  0.00     0.127 C 
ENDROOT
BRANCH   1   2
ATOM      2  C   UNL     1       4.486   1.098   1.940  1.00  0.00     0.303 C 
ATOM      3  O   UNL     1       5.133   0.172   2.501  1.00  0.00    -0.252 OA
BRANCH   2   4
ATOM      4  O   UNL     1       3.237   1.461   2.466  1.00  0.00    -0.481 OA
ATOM      5  H   UNL     1       3.002   2.443   2.516  1.00  0.00     0.296 HD
ENDBRANCH   2   4
ENDBRANCH   1   2
BRANCH   1   6
ATOM      6  C   UNL     1       6.581   1.813   0.815  1.00  0.00     0.047 C 
BRANCH   6   7
ATOM      7  C   UNL     1       7.182   1.046  -0.308  1.00  0.00    -0.047 A 
ATOM      8  C   UNL     1       6.432   0.111  -1.007  1.00  0.00     0.004 A 
ATOM      9  C   UNL     1       8.496   1.208  -0.706  1.00  0.00     0.004 A 
ATOM     10  C   UNL     1       6.962  -0.622  -2.044  1.00  0.00     0.000 A 
ATOM     11  C   UNL     1       9.025   0.473  -1.745  1.00  0.00     0.000 A 
ATOM     12  C   UNL     1       8.276  -0.454  -2.433  1.00  0.00     0.000 A 
ENDBRANCH   6   7
ENDBRANCH   1   6
TORSDOF 4
ENDMDL
