@<TRIPOS>MOLECULE
/home/cewinharhar/GITHUB/reincatalyze/data/processed/docking_pred/2023-Apr-25-2248_maxeplen10_maxtrainstep1000_exh16_gamma099_lrac3e-4_lrcr1e-3/104e94148118840ff9051874ebdd157f969f5898_ligand_2.pdbqt
 12 12 0 0 0
SMALL
GASTEIGER

@<TRIPOS>ATOM
      1  C          8.3850   -0.7880   -1.9490 C.3     1  UNL1        0.1270
      2  C          8.3780   -1.9650   -2.8350 C.2     1  UNL1        0.3030
      3  O          7.2750   -2.4080   -3.2560 O.2     1  UNL1       -0.2520
      4  O          9.5580   -2.6110   -3.2300 O.3     1  UNL1       -0.4810
      5  H         10.3780   -2.5190   -2.6460 H       1  UNL1        0.2960
      6  C          7.1000    0.0150   -2.0500 C.3     1  UNL1        0.0470
      7  C          6.4730    0.1880   -0.7140 C.2     1  UNL1       -0.0470
      8  C          6.5740   -0.8060    0.2490 C.2     1  UNL1        0.0040
      9  C          5.7610    1.3190   -0.3620 C.2     1  UNL1        0.0040
     10  C          5.9970   -0.6810    1.4920 C.2     1  UNL1        0.0000
     11  C          5.1830    1.4440    0.8830 C.2     1  UNL1        0.0000
     12  C          5.2860    0.4520    1.8330 C.2     1  UNL1        0.0000
@<TRIPOS>BOND
     1     3     2    2
     2     4     2    1
     3     4     5    1
     4     2     1    1
     5     6     1    1
     6     6     7    1
     7     7     9    2
     8     7     8    1
     9     9    11    1
    10     8    10    2
    11    11    12    2
    12    10    12    1
