@<TRIPOS>MOLECULE
/home/cewinharhar/GITHUB/reincatalyze/data/processed/docking_pred/2023-Apr-25-2248_maxeplen10_maxtrainstep1000_exh16_gamma099_lrac3e-4_lrcr1e-3/104e94148118840ff9051874ebdd157f969f5898_ligand_2.pdbqt
 12 12 0 0 0
SMALL
GASTEIGER

@<TRIPOS>ATOM
      1  C          8.1800   -0.2250   -2.5980 C.3     1  UNL1        0.1270
      2  C          8.3770   -1.6380   -2.9690 C.2     1  UNL1        0.3030
      3  O          9.5310   -2.1390   -2.8810 O.2     1  UNL1       -0.2520
      4  O          7.3230   -2.4480   -3.4150 O.3     1  UNL1       -0.4810
      5  H          7.5210   -3.1660   -4.0980 H       1  UNL1        0.2960
      6  C          8.7070    0.0830   -1.2080 C.3     1  UNL1        0.0470
      7  C          7.5930    0.2110   -0.2330 C.2     1  UNL1       -0.0470
      8  C          6.5190    1.0510   -0.4910 C.2     1  UNL1        0.0040
      9  C          7.5660   -0.4750    0.9670 C.2     1  UNL1        0.0040
     10  C          5.4780    1.2000    0.3960 C.2     1  UNL1        0.0000
     11  C          6.5230   -0.3260    1.8550 C.2     1  UNL1        0.0000
     12  C          5.4610    0.5110    1.5920 C.2     1  UNL1        0.0000
@<TRIPOS>BOND
     1     5     4    1
     2     4     2    1
     3     2     3    2
     4     2     1    1
     5     1     6    1
     6     6     7    1
     7     8     7    2
     8     8    10    1
     9     7     9    1
    10    10    12    2
    11     9    11    2
    12    12    11    1
