@<TRIPOS>MOLECULE
/home/cewinharhar/GITHUB/reincatalyze/data/processed/docking_pred/2023-Apr-25-2248_maxeplen10_maxtrainstep1000_exh16_gamma099_lrac3e-4_lrcr1e-3/104e94148118840ff9051874ebdd157f969f5898_ligand_2.pdbqt
 12 12 0 0 0
SMALL
GASTEIGER

@<TRIPOS>ATOM
      1  C          8.3800   -0.5850   -2.2040 C.3     1  UNL1        0.1270
      2  C          8.3760   -1.8780   -2.9100 C.2     1  UNL1        0.3030
      3  O          7.2740   -2.3900   -3.2450 O.2     1  UNL1       -0.2520
      4  O          9.5600   -2.5610   -3.2260 O.3     1  UNL1       -0.4810
      5  H          9.4980   -3.5290   -3.5120 H       1  UNL1        0.2960
      6  C          6.9990    0.0440   -2.1510 C.3     1  UNL1        0.0470
      7  C          6.4810    0.0750   -0.7580 C.2     1  UNL1       -0.0470
      8  C          5.8390    1.2030   -0.2680 C.2     1  UNL1        0.0040
      9  C          6.6140   -0.9900    0.1140 C.2     1  UNL1        0.0040
     10  C          5.3570    1.2670    1.0200 C.2     1  UNL1        0.0000
     11  C          6.1300   -0.9240    1.4030 C.2     1  UNL1        0.0000
     12  C          5.4960    0.1990    1.8830 C.2     1  UNL1        0.0000
@<TRIPOS>BOND
     1     5     4    1
     2     3     2    2
     3     4     2    1
     4     2     1    1
     5     1     6    1
     6     6     7    1
     7     7     8    2
     8     7     9    1
     9     8    10    1
    10     9    11    2
    11    10    12    2
    12    11    12    1
