@<TRIPOS>MOLECULE
/home/cewinharhar/GITHUB/reincatalyze/data/processed/docking_pred/2023-Apr-25-2248_maxeplen10_maxtrainstep1000_exh16_gamma099_lrac3e-4_lrcr1e-3/104e94148118840ff9051874ebdd157f969f5898_ligand_2.pdbqt
 12 12 0 0 0
SMALL
GASTEIGER

@<TRIPOS>ATOM
      1  C          8.1310   -0.9220   -1.9160 C.3     1  UNL1        0.1270
      2  C          8.3330   -2.0110   -2.8880 C.2     1  UNL1        0.3030
      3  O          9.5020   -2.4340   -3.0990 O.2     1  UNL1       -0.2520
      4  O          7.2680   -2.5960   -3.5880 O.3     1  UNL1       -0.4810
      5  H          6.4930   -2.9730   -3.0610 H       1  UNL1        0.2960
      6  C          7.3690   -1.3830   -0.6880 C.3     1  UNL1        0.0470
      7  C          6.5410   -0.2830   -0.1290 C.2     1  UNL1       -0.0470
      8  C          6.0670   -0.3440    1.1730 C.2     1  UNL1        0.0040
      9  C          6.1930    0.8380   -0.8620 C.2     1  UNL1        0.0040
     10  C          5.2900    0.6540    1.7160 C.2     1  UNL1        0.0000
     11  C          5.4140    1.8360   -0.3170 C.2     1  UNL1        0.0000
     12  C          4.9470    1.7670    0.9760 C.2     1  UNL1        0.0000
@<TRIPOS>BOND
     1     4     5    1
     2     4     2    1
     3     3     2    2
     4     2     1    1
     5     1     6    1
     6     9    11    1
     7     9     7    2
     8     6     7    1
     9    11    12    2
    10     7     8    1
    11    12    10    1
    12     8    10    2
