@<TRIPOS>MOLECULE
/home/cewinharhar/GITHUB/reincatalyze/data/processed/docking_pred/2023-Apr-25-2248_maxeplen10_maxtrainstep1000_exh16_gamma099_lrac3e-4_lrcr1e-3/104e94148118840ff9051874ebdd157f969f5898_ligand_2.pdbqt
 12 12 0 0 0
SMALL
GASTEIGER

@<TRIPOS>ATOM
      1  C          5.0650    1.7620    0.7590 C.3     1  UNL1        0.1270
      2  C          4.4860    1.0980    1.9400 C.2     1  UNL1        0.3030
      3  O          5.1330    0.1720    2.5010 O.2     1  UNL1       -0.2520
      4  O          3.2370    1.4610    2.4660 O.3     1  UNL1       -0.4810
      5  H          3.0020    2.4430    2.5160 H       1  UNL1        0.2960
      6  C          6.5810    1.8130    0.8150 C.3     1  UNL1        0.0470
      7  C          7.1820    1.0460   -0.3080 C.2     1  UNL1       -0.0470
      8  C          6.4320    0.1110   -1.0070 C.2     1  UNL1        0.0040
      9  C          8.4960    1.2080   -0.7060 C.2     1  UNL1        0.0040
     10  C          6.9620   -0.6220   -2.0440 C.2     1  UNL1        0.0000
     11  C          9.0250    0.4730   -1.7450 C.2     1  UNL1        0.0000
     12  C          8.2760   -0.4540   -2.4330 C.2     1  UNL1        0.0000
@<TRIPOS>BOND
     1    12    10    2
     2    12    11    1
     3    10     8    1
     4    11     9    2
     5     8     7    2
     6     9     7    1
     7     7     6    1
     8     1     6    1
     9     1     2    1
    10     2     4    1
    11     2     3    2
    12     4     5    1
