@<TRIPOS>MOLECULE
/home/cewinharhar/GITHUB/reincatalyze/data/processed/docking_pred/2023-Apr-25-2248_maxeplen10_maxtrainstep1000_exh16_gamma099_lrac3e-4_lrcr1e-3/10ef791c1764d6d7d99274693c0e95c254b80295_ligand_2.pdbqt
 12 12 0 0 0
SMALL
GASTEIGER

@<TRIPOS>ATOM
      1  C          8.4260   -0.6020   -2.1770 C.3     1  UNL1        0.1270
      2  C          8.4890   -1.8850   -2.9000 C.2     1  UNL1        0.3030
      3  O          9.6080   -2.4450   -3.0580 O.2     1  UNL1       -0.2520
      4  O          7.3450   -2.5080   -3.4190 O.3     1  UNL1       -0.4810
      5  H          6.5130   -2.5470   -2.8450 H       1  UNL1        0.2960
      6  C          7.0330    0.0010   -2.1980 C.3     1  UNL1        0.0470
      7  C          6.4930    0.1400   -0.8210 C.2     1  UNL1       -0.0470
      8  C          6.5970   -0.9020    0.0890 C.2     1  UNL1        0.0040
      9  C          5.8590    1.2870   -0.3780 C.2     1  UNL1        0.0040
     10  C          6.0970   -0.8080    1.3680 C.2     1  UNL1        0.0000
     11  C          5.3600    1.3800    0.9030 C.2     1  UNL1        0.0000
     12  C          5.4660    0.3410    1.8000 C.2     1  UNL1        0.0000
@<TRIPOS>BOND
     1     4     2    1
     2     4     5    1
     3     3     2    2
     4     2     1    1
     5     6     1    1
     6     6     7    1
     7     7     9    2
     8     7     8    1
     9     9    11    1
    10     8    10    2
    11    11    12    2
    12    10    12    1
