MODEL 1
REMARK VINA RESULT:      -7.3      0.000      0.000
REMARK SMILES O=C(O)CCc1ccccc1
REMARK SMILES IDX 4 1 2 2 1 3 3 4 5 6 6 7 7 8 11 9 8 10 10 11 9 12
REMARK H PARENT 3 5
REMARK Flexibility Score: inf
ROOT
ATOM      1  C   UNL     1       8.421  -0.695  -2.081  1.00  0.00     0.127 C 
ENDROOT
BRANCH   1   2
ATOM      2  C   UNL     1       8.445  -1.932  -2.881  1.00  0.00     0.303 C 
ATOM      3  O   UNL     1       9.548  -2.511  -3.079  1.00  0.00    -0.252 OA
BRANCH   2   4
ATOM      4  O   UNL     1       7.282  -2.491  -3.430  1.00  0.00    -0.481 OA
ATOM      5  H   UNL     1       6.592  -1.872  -3.832  1.00  0.00     0.296 HD
ENDBRANCH   2   4
ENDBRANCH   1   2
BRANCH   1   6
ATOM      6  C   UNL     1       7.059  -0.024  -2.103  1.00  0.00     0.047 C 
BRANCH   6   7
ATOM      7  C   UNL     1       6.489   0.070  -0.734  1.00  0.00    -0.047 A 
ATOM      8  C   UNL     1       5.828   1.217  -0.319  1.00  0.00     0.004 A 
ATOM      9  C   UNL     1       6.590  -0.953   0.191  1.00  0.00     0.004 A 
ATOM     10  C   UNL     1       5.298   1.339   0.945  1.00  0.00     0.000 A 
ATOM     11  C   UNL     1       6.059  -0.830   1.457  1.00  0.00     0.000 A 
ATOM     12  C   UNL     1       5.406   0.313   1.861  1.00  0.00     0.000 A 
ENDBRANCH   6   7
ENDBRANCH   1   6
TORSDOF 4
ENDMDL
MODEL 2
REMARK VINA RESULT:      -7.3      0.098      1.424
REMARK SMILES O=C(O)CCc1ccccc1
REMARK SMILES IDX 4 1 2 2 1 3 3 4 5 6 6 7 7 8 11 9 8 10 10 11 9 12
REMARK H PARENT 3 5
REMARK Flexibility Score: inf
ROOT
ATOM      1  C   UNL     1       8.426  -0.602  -2.177  1.00  0.00     0.127 C 
ENDROOT
BRANCH   1   2
ATOM      2  C   UNL     1       8.489  -1.885  -2.900  1.00  0.00     0.303 C 
ATOM      3  O   UNL     1       9.608  -2.445  -3.058  1.00  0.00    -0.252 OA
BRANCH   2   4
ATOM      4  O   UNL     1       7.345  -2.508  -3.419  1.00  0.00    -0.481 OA
ATOM      5  H   UNL     1       6.513  -2.547  -2.845  1.00  0.00     0.296 HD
ENDBRANCH   2   4
ENDBRANCH   1   2
BRANCH   1   6
ATOM      6  C   UNL     1       7.033   0.001  -2.198  1.00  0.00     0.047 C 
BRANCH   6   7
ATOM      7  C   UNL     1       6.493   0.140  -0.821  1.00  0.00    -0.047 A 
ATOM      8  C   UNL     1       6.597  -0.902   0.089  1.00  0.00     0.004 A 
ATOM      9  C   UNL     1       5.859   1.287  -0.378  1.00  0.00     0.004 A 
ATOM     10  C   UNL     1       6.097  -0.808   1.368  1.00  0.00     0.000 A 
ATOM     11  C   UNL     1       5.360   1.380   0.903  1.00  0.00     0.000 A 
ATOM     12  C   UNL     1       5.466   0.341   1.800  1.00  0.00     0.000 A 
ENDBRANCH   6   7
ENDBRANCH   1   6
TORSDOF 4
ENDMDL
MODEL 3
REMARK VINA RESULT:      -7.1      0.654      1.614
REMARK SMILES O=C(O)CCc1ccccc1
REMARK SMILES IDX 4 1 2 2 1 3 3 4 5 6 6 7 7 8 11 9 8 10 10 11 9 12
REMARK H PARENT 3 5
REMARK Flexibility Score: inf
ROOT
ATOM      1  C   UNL     1       8.269  -0.910  -1.898  1.00  0.00     0.127 C 
ENDROOT
BRANCH   1   2
ATOM      2  C   UNL     1       8.381  -2.032  -2.847  1.00  0.00     0.303 C 
ATOM      3  O   UNL     1       9.513  -2.543  -3.061  1.00  0.00    -0.252 OA
BRANCH   2   4
ATOM      4  O   UNL     1       7.268  -2.553  -3.523  1.00  0.00    -0.481 OA
ATOM      5  H   UNL     1       6.733  -3.287  -3.078  1.00  0.00     0.296 HD
ENDBRANCH   2   4
ENDBRANCH   1   2
BRANCH   1   6
ATOM      6  C   UNL     1       7.624  -1.329  -0.589  1.00  0.00     0.047 C 
BRANCH   6   7
ATOM      7  C   UNL     1       6.705  -0.274  -0.087  1.00  0.00    -0.047 A 
ATOM      8  C   UNL     1       6.192  -0.336   1.201  1.00  0.00     0.004 A 
ATOM      9  C   UNL     1       6.309   0.803  -0.859  1.00  0.00     0.004 A 
ATOM     10  C   UNL     1       5.331   0.619   1.691  1.00  0.00     0.000 A 
ATOM     11  C   UNL     1       5.447   1.759  -0.366  1.00  0.00     0.000 A 
ATOM     12  C   UNL     1       4.941   1.689   0.912  1.00  0.00     0.000 A 
ENDBRANCH   6   7
ENDBRANCH   1   6
TORSDOF 4
ENDMDL
MODEL 4
REMARK VINA RESULT:      -6.8      3.394      5.101
REMARK SMILES O=C(O)CCc1ccccc1
REMARK SMILES IDX 4 1 2 2 1 3 3 4 5 6 6 7 7 8 11 9 8 10 10 11 9 12
REMARK H PARENT 3 5
REMARK Flexibility Score: inf
ROOT
ATOM      1  C   UNL     1       5.030   1.759   0.739  1.00  0.00     0.127 C 
ENDROOT
BRANCH   1   2
ATOM      2  C   UNL     1       4.473   1.097   1.932  1.00  0.00     0.303 C 
ATOM      3  O   UNL     1       5.133   0.177   2.486  1.00  0.00    -0.252 OA
BRANCH   2   4
ATOM      4  O   UNL     1       3.231   1.457   2.475  1.00  0.00    -0.481 OA
ATOM      5  H   UNL     1       3.205   1.836   3.412  1.00  0.00     0.296 HD
ENDBRANCH   2   4
ENDBRANCH   1   2
BRANCH   1   6
ATOM      6  C   UNL     1       6.545   1.851   0.789  1.00  0.00     0.047 C 
BRANCH   6   7
ATOM      7  C   UNL     1       7.162   1.072  -0.317  1.00  0.00    -0.047 A 
ATOM      8  C   UNL     1       6.419   0.141  -1.027  1.00  0.00     0.004 A 
ATOM      9  C   UNL     1       8.486   1.220  -0.688  1.00  0.00     0.004 A 
ATOM     10  C   UNL     1       6.964  -0.603  -2.049  1.00  0.00     0.000 A 
ATOM     11  C   UNL     1       9.030   0.475  -1.712  1.00  0.00     0.000 A 
ATOM     12  C   UNL     1       8.287  -0.449  -2.411  1.00  0.00     0.000 A 
ENDBRANCH   6   7
ENDBRANCH   1   6
TORSDOF 4
ENDMDL
MODEL 5
REMARK VINA RESULT:      -6.5      3.775      5.025
REMARK SMILES O=C(O)CCc1ccccc1
REMARK SMILES IDX 4 1 2 2 1 3 3 4 5 6 6 7 7 8 11 9 8 10 10 11 9 12
REMARK H PARENT 3 5
REMARK Flexibility Score: inf
ROOT
ATOM      1  C   UNL     1       5.422   2.950   0.142  1.00  0.00     0.127 C 
ENDROOT
BRANCH   1   2
ATOM      2  C   UNL     1       6.251   3.910   0.893  1.00  0.00     0.303 C 
ATOM      3  O   UNL     1       6.913   4.775   0.258  1.00  0.00    -0.252 OA
BRANCH   2   4
ATOM      4  O   UNL     1       6.329   3.895   2.293  1.00  0.00    -0.481 OA
ATOM      5  H   UNL     1       6.700   4.708   2.765  1.00  0.00     0.296 HD
ENDBRANCH   2   4
ENDBRANCH   1   2
BRANCH   1   6
ATOM      6  C   UNL     1       5.282   1.623   0.866  1.00  0.00     0.047 C 
BRANCH   6   7
ATOM      7  C   UNL     1       6.047   0.554   0.171  1.00  0.00    -0.047 A 
ATOM      8  C   UNL     1       6.328   0.652  -1.184  1.00  0.00     0.004 A 
ATOM      9  C   UNL     1       6.504  -0.580   0.817  1.00  0.00     0.004 A 
ATOM     10  C   UNL     1       7.024  -0.324  -1.859  1.00  0.00     0.000 A 
ATOM     11  C   UNL     1       7.201  -1.557   0.140  1.00  0.00     0.000 A 
ATOM     12  C   UNL     1       7.475  -1.453  -1.205  1.00  0.00     0.000 A 
ENDBRANCH   6   7
ENDBRANCH   1   6
TORSDOF 4
ENDMDL
