@<TRIPOS>MOLECULE
/home/cewinharhar/GITHUB/reincatalyze/data/processed/docking_pred/2023-Apr-25-2248_maxeplen10_maxtrainstep1000_exh16_gamma099_lrac3e-4_lrcr1e-3/10ef791c1764d6d7d99274693c0e95c254b80295_ligand_2.pdbqt
 12 12 0 0 0
SMALL
GASTEIGER

@<TRIPOS>ATOM
      1  C          5.4220    2.9500    0.1420 C.3     1  UNL1        0.1270
      2  C          6.2510    3.9100    0.8930 C.2     1  UNL1        0.3030
      3  O          6.9130    4.7750    0.2580 O.2     1  UNL1       -0.2520
      4  O          6.3290    3.8950    2.2930 O.3     1  UNL1       -0.4810
      5  H          6.7000    4.7080    2.7650 H       1  UNL1        0.2960
      6  C          5.2820    1.6230    0.8660 C.3     1  UNL1        0.0470
      7  C          6.0470    0.5540    0.1710 C.2     1  UNL1       -0.0470
      8  C          6.3280    0.6520   -1.1840 C.2     1  UNL1        0.0040
      9  C          6.5040   -0.5800    0.8170 C.2     1  UNL1        0.0040
     10  C          7.0240   -0.3240   -1.8590 C.2     1  UNL1        0.0000
     11  C          7.2010   -1.5570    0.1400 C.2     1  UNL1        0.0000
     12  C          7.4750   -1.4530   -1.2050 C.2     1  UNL1        0.0000
@<TRIPOS>BOND
     1    10    12    2
     2    10     8    1
     3    12    11    1
     4     8     7    2
     5    11     9    2
     6     1     6    1
     7     1     2    1
     8     7     9    1
     9     7     6    1
    10     3     2    2
    11     2     4    1
    12     4     5    1
