@<TRIPOS>MOLECULE
/home/cewinharhar/GITHUB/reincatalyze/data/processed/docking_pred/2023-Apr-25-2248_maxeplen10_maxtrainstep1000_exh16_gamma099_lrac3e-4_lrcr1e-3/10ef791c1764d6d7d99274693c0e95c254b80295_ligand_2.pdbqt
 12 12 0 0 0
SMALL
GASTEIGER

@<TRIPOS>ATOM
      1  C          8.2690   -0.9100   -1.8980 C.3     1  UNL1        0.1270
      2  C          8.3810   -2.0320   -2.8470 C.2     1  UNL1        0.3030
      3  O          9.5130   -2.5430   -3.0610 O.2     1  UNL1       -0.2520
      4  O          7.2680   -2.5530   -3.5230 O.3     1  UNL1       -0.4810
      5  H          6.7330   -3.2870   -3.0780 H       1  UNL1        0.2960
      6  C          7.6240   -1.3290   -0.5890 C.3     1  UNL1        0.0470
      7  C          6.7050   -0.2740   -0.0870 C.2     1  UNL1       -0.0470
      8  C          6.1920   -0.3360    1.2010 C.2     1  UNL1        0.0040
      9  C          6.3090    0.8030   -0.8590 C.2     1  UNL1        0.0040
     10  C          5.3310    0.6190    1.6910 C.2     1  UNL1        0.0000
     11  C          5.4470    1.7590   -0.3660 C.2     1  UNL1        0.0000
     12  C          4.9410    1.6890    0.9120 C.2     1  UNL1        0.0000
@<TRIPOS>BOND
     1     4     5    1
     2     4     2    1
     3     3     2    2
     4     2     1    1
     5     1     6    1
     6     9    11    1
     7     9     7    2
     8     6     7    1
     9    11    12    2
    10     7     8    1
    11    12    10    1
    12     8    10    2
