@<TRIPOS>MOLECULE
/home/cewinharhar/GITHUB/reincatalyze/data/processed/docking_pred/2023-Apr-25-2248_maxeplen10_maxtrainstep1000_exh16_gamma099_lrac3e-4_lrcr1e-3/10ef791c1764d6d7d99274693c0e95c254b80295_ligand_2.pdbqt
 12 12 0 0 0
SMALL
GASTEIGER

@<TRIPOS>ATOM
      1  C          5.0300    1.7590    0.7390 C.3     1  UNL1        0.1270
      2  C          4.4730    1.0970    1.9320 C.2     1  UNL1        0.3030
      3  O          5.1330    0.1770    2.4860 O.2     1  UNL1       -0.2520
      4  O          3.2310    1.4570    2.4750 O.3     1  UNL1       -0.4810
      5  H          3.2050    1.8360    3.4120 H       1  UNL1        0.2960
      6  C          6.5450    1.8510    0.7890 C.3     1  UNL1        0.0470
      7  C          7.1620    1.0720   -0.3170 C.2     1  UNL1       -0.0470
      8  C          6.4190    0.1410   -1.0270 C.2     1  UNL1        0.0040
      9  C          8.4860    1.2200   -0.6880 C.2     1  UNL1        0.0040
     10  C          6.9640   -0.6030   -2.0490 C.2     1  UNL1        0.0000
     11  C          9.0300    0.4750   -1.7120 C.2     1  UNL1        0.0000
     12  C          8.2870   -0.4490   -2.4110 C.2     1  UNL1        0.0000
@<TRIPOS>BOND
     1    12    10    2
     2    12    11    1
     3    10     8    1
     4    11     9    2
     5     8     7    2
     6     9     7    1
     7     7     6    1
     8     1     6    1
     9     1     2    1
    10     2     4    1
    11     2     3    2
    12     4     5    1
