@<TRIPOS>MOLECULE
/home/cewinharhar/GITHUB/reincatalyze/data/processed/docking_pred/2023-Apr-25-2248_maxeplen10_maxtrainstep1000_exh16_gamma099_lrac3e-4_lrcr1e-3/10ef791c1764d6d7d99274693c0e95c254b80295_ligand_2.pdbqt
 12 12 0 0 0
SMALL
GASTEIGER

@<TRIPOS>ATOM
      1  C          8.4210   -0.6950   -2.0810 C.3     1  UNL1        0.1270
      2  C          8.4450   -1.9320   -2.8810 C.2     1  UNL1        0.3030
      3  O          9.5480   -2.5110   -3.0790 O.2     1  UNL1       -0.2520
      4  O          7.2820   -2.4910   -3.4300 O.3     1  UNL1       -0.4810
      5  H          6.5920   -1.8720   -3.8320 H       1  UNL1        0.2960
      6  C          7.0590   -0.0240   -2.1030 C.3     1  UNL1        0.0470
      7  C          6.4890    0.0700   -0.7340 C.2     1  UNL1       -0.0470
      8  C          5.8280    1.2170   -0.3190 C.2     1  UNL1        0.0040
      9  C          6.5900   -0.9530    0.1910 C.2     1  UNL1        0.0040
     10  C          5.2980    1.3390    0.9450 C.2     1  UNL1        0.0000
     11  C          6.0590   -0.8300    1.4570 C.2     1  UNL1        0.0000
     12  C          5.4060    0.3130    1.8610 C.2     1  UNL1        0.0000
@<TRIPOS>BOND
     1     5     4    1
     2     4     2    1
     3     3     2    2
     4     2     1    1
     5     6     1    1
     6     6     7    1
     7     7     8    2
     8     7     9    1
     9     8    10    1
    10     9    11    2
    11    10    12    2
    12    11    12    1
