MODEL 1
REMARK VINA RESULT:      -7.3      0.000      0.000
REMARK SMILES O=C(O)CCc1ccccc1
REMARK SMILES IDX 4 1 2 2 1 3 3 4 5 6 6 7 7 8 11 9 8 10 10 11 9 12
REMARK H PARENT 3 5
REMARK Flexibility Score: inf
ROOT
ATOM      1  C   UNL     1       8.412  -0.683  -2.091  1.00  0.00     0.127 C 
ENDROOT
BRANCH   1   2
ATOM      2  C   UNL     1       8.426  -1.923  -2.888  1.00  0.00     0.303 C 
ATOM      3  O   UNL     1       9.524  -2.512  -3.083  1.00  0.00    -0.252 OA
BRANCH   2   4
ATOM      4  O   UNL     1       7.259  -2.472  -3.438  1.00  0.00    -0.481 OA
ATOM      5  H   UNL     1       6.575  -1.847  -3.843  1.00  0.00     0.296 HD
ENDBRANCH   2   4
ENDBRANCH   1   2
BRANCH   1   6
ATOM      6  C   UNL     1       7.046  -0.020  -2.086  1.00  0.00     0.047 C 
BRANCH   6   7
ATOM      7  C   UNL     1       6.487   0.037  -0.710  1.00  0.00    -0.047 A 
ATOM      8  C   UNL     1       5.820   1.169  -0.263  1.00  0.00     0.004 A 
ATOM      9  C   UNL     1       6.604  -1.007   0.190  1.00  0.00     0.004 A 
ATOM     10  C   UNL     1       5.301   1.257   1.008  1.00  0.00     0.000 A 
ATOM     11  C   UNL     1       6.083  -0.918   1.463  1.00  0.00     0.000 A 
ATOM     12  C   UNL     1       5.424   0.209   1.899  1.00  0.00     0.000 A 
ENDBRANCH   6   7
ENDBRANCH   1   6
TORSDOF 4
ENDMDL
MODEL 2
REMARK VINA RESULT:      -7.2      0.102      1.724
REMARK SMILES O=C(O)CCc1ccccc1
REMARK SMILES IDX 4 1 2 2 1 3 3 4 5 6 6 7 7 8 11 9 8 10 10 11 9 12
REMARK H PARENT 3 5
REMARK Flexibility Score: inf
ROOT
ATOM      1  C   UNL     1       8.397  -0.695  -2.075  1.00  0.00     0.127 C 
ENDROOT
BRANCH   1   2
ATOM      2  C   UNL     1       8.402  -1.931  -2.877  1.00  0.00     0.303 C 
ATOM      3  O   UNL     1       7.303  -2.428  -3.243  1.00  0.00    -0.252 OA
BRANCH   2   4
ATOM      4  O   UNL     1       9.591  -2.574  -3.251  1.00  0.00    -0.481 OA
ATOM      5  H   UNL     1       9.581  -3.172  -4.066  1.00  0.00     0.296 HD
ENDBRANCH   2   4
ENDBRANCH   1   2
BRANCH   1   6
ATOM      6  C   UNL     1       7.048   0.002  -2.103  1.00  0.00     0.047 C 
BRANCH   6   7
ATOM      7  C   UNL     1       6.479   0.116  -0.734  1.00  0.00    -0.047 A 
ATOM      8  C   UNL     1       6.591  -0.932   0.168  1.00  0.00     0.004 A 
ATOM      9  C   UNL     1       5.812   1.244  -0.293  1.00  0.00     0.004 A 
ATOM     10  C   UNL     1       6.066  -0.861   1.438  1.00  0.00     0.000 A 
ATOM     11  C   UNL     1       5.287   1.313   0.980  1.00  0.00     0.000 A 
ATOM     12  C   UNL     1       5.401   0.269   1.869  1.00  0.00     0.000 A 
ENDBRANCH   6   7
ENDBRANCH   1   6
TORSDOF 4
ENDMDL
MODEL 3
REMARK VINA RESULT:      -6.8      3.398      5.084
REMARK SMILES O=C(O)CCc1ccccc1
REMARK SMILES IDX 4 1 2 2 1 3 3 4 5 6 6 7 7 8 11 9 8 10 10 11 9 12
REMARK H PARENT 3 5
REMARK Flexibility Score: inf
ROOT
ATOM      1  C   UNL     1       4.996   1.784   0.746  1.00  0.00     0.127 C 
ENDROOT
BRANCH   1   2
ATOM      2  C   UNL     1       4.453   1.108   1.937  1.00  0.00     0.303 C 
ATOM      3  O   UNL     1       5.123   0.186   2.477  1.00  0.00    -0.252 OA
BRANCH   2   4
ATOM      4  O   UNL     1       3.213   1.455   2.494  1.00  0.00    -0.481 OA
ATOM      5  H   UNL     1       3.075   2.404   2.813  1.00  0.00     0.296 HD
ENDBRANCH   2   4
ENDBRANCH   1   2
BRANCH   1   6
ATOM      6  C   UNL     1       6.512   1.870   0.777  1.00  0.00     0.047 C 
BRANCH   6   7
ATOM      7  C   UNL     1       7.114   1.064  -0.317  1.00  0.00    -0.047 A 
ATOM      8  C   UNL     1       8.447   1.228  -0.666  1.00  0.00     0.004 A 
ATOM      9  C   UNL     1       6.395   0.131  -1.042  1.00  0.00     0.004 A 
ATOM     10  C   UNL     1       9.030   0.505  -1.681  1.00  0.00     0.000 A 
ATOM     11  C   UNL     1       6.981  -0.592  -2.058  1.00  0.00     0.000 A 
ATOM     12  C   UNL     1       8.304  -0.423  -2.399  1.00  0.00     0.000 A 
ENDBRANCH   6   7
ENDBRANCH   1   6
TORSDOF 4
ENDMDL
MODEL 4
REMARK VINA RESULT:      -6.8      3.399      5.100
REMARK SMILES O=C(O)CCc1ccccc1
REMARK SMILES IDX 4 1 2 2 1 3 3 4 5 6 6 7 7 8 11 9 8 10 10 11 9 12
REMARK H PARENT 3 5
REMARK Flexibility Score: inf
ROOT
ATOM      1  C   UNL     1       5.012   1.790   0.756  1.00  0.00     0.127 C 
ENDROOT
BRANCH   1   2
ATOM      2  C   UNL     1       4.460   1.109   1.941  1.00  0.00     0.303 C 
ATOM      3  O   UNL     1       5.126   0.183   2.479  1.00  0.00    -0.252 OA
BRANCH   2   4
ATOM      4  O   UNL     1       3.218   1.455   2.492  1.00  0.00    -0.481 OA
ATOM      5  H   UNL     1       2.956   2.432   2.518  1.00  0.00     0.296 HD
ENDBRANCH   2   4
ENDBRANCH   1   2
BRANCH   1   6
ATOM      6  C   UNL     1       6.527   1.881   0.800  1.00  0.00     0.047 C 
BRANCH   6   7
ATOM      7  C   UNL     1       7.139   1.100  -0.306  1.00  0.00    -0.047 A 
ATOM      8  C   UNL     1       6.385   0.190  -1.032  1.00  0.00     0.004 A 
ATOM      9  C   UNL     1       8.470   1.224  -0.662  1.00  0.00     0.004 A 
ATOM     10  C   UNL     1       6.925  -0.556  -2.054  1.00  0.00     0.000 A 
ATOM     11  C   UNL     1       9.010   0.476  -1.686  1.00  0.00     0.000 A 
ATOM     12  C   UNL     1       8.255  -0.426  -2.401  1.00  0.00     0.000 A 
ENDBRANCH   6   7
ENDBRANCH   1   6
TORSDOF 4
ENDMDL
MODEL 5
REMARK VINA RESULT:      -6.6      1.985      2.696
REMARK SMILES O=C(O)CCc1ccccc1
REMARK SMILES IDX 4 1 2 2 1 3 3 4 5 6 6 7 7 8 11 9 8 10 10 11 9 12
REMARK H PARENT 3 5
REMARK Flexibility Score: inf
ROOT
ATOM      1  C   UNL     1       8.328   0.138  -2.137  1.00  0.00     0.127 C 
ENDROOT
BRANCH   1   2
ATOM      2  C   UNL     1       9.450   0.378  -1.212  1.00  0.00     0.303 C 
ATOM      3  O   UNL     1       9.549  -0.330  -0.173  1.00  0.00    -0.252 OA
BRANCH   2   4
ATOM      4  O   UNL     1      10.415   1.368  -1.447  1.00  0.00    -0.481 OA
ATOM      5  H   UNL     1      10.658   1.589  -2.404  1.00  0.00     0.296 HD
ENDBRANCH   2   4
ENDBRANCH   1   2
BRANCH   1   6
ATOM      6  C   UNL     1       7.214  -0.666  -1.491  1.00  0.00     0.047 C 
BRANCH   6   7
ATOM      7  C   UNL     1       6.411   0.180  -0.570  1.00  0.00    -0.047 A 
ATOM      8  C   UNL     1       6.171  -0.225   0.735  1.00  0.00     0.004 A 
ATOM      9  C   UNL     1       5.860   1.389  -0.953  1.00  0.00     0.004 A 
ATOM     10  C   UNL     1       5.424   0.530   1.609  1.00  0.00     0.000 A 
ATOM     11  C   UNL     1       5.112   2.145  -0.076  1.00  0.00     0.000 A 
ATOM     12  C   UNL     1       4.877   1.735   1.217  1.00  0.00     0.000 A 
ENDBRANCH   6   7
ENDBRANCH   1   6
TORSDOF 4
ENDMDL
