@<TRIPOS>MOLECULE
/home/cewinharhar/GITHUB/reincatalyze/data/processed/docking_pred/2023-Apr-25-2248_maxeplen10_maxtrainstep1000_exh16_gamma099_lrac3e-4_lrcr1e-3/12e5788d749ca0b681d4f032b25b6d257325d045_ligand_2.pdbqt
 12 12 0 0 0
SMALL
GASTEIGER

@<TRIPOS>ATOM
      1  C          8.3280    0.1380   -2.1370 C.3     1  UNL1        0.1270
      2  C          9.4500    0.3780   -1.2120 C.2     1  UNL1        0.3030
      3  O          9.5490   -0.3300   -0.1730 O.2     1  UNL1       -0.2520
      4  O         10.4150    1.3680   -1.4470 O.3     1  UNL1       -0.4810
      5  H         10.6580    1.5890   -2.4040 H       1  UNL1        0.2960
      6  C          7.2140   -0.6660   -1.4910 C.3     1  UNL1        0.0470
      7  C          6.4110    0.1800   -0.5700 C.2     1  UNL1       -0.0470
      8  C          6.1710   -0.2250    0.7350 C.2     1  UNL1        0.0040
      9  C          5.8600    1.3890   -0.9530 C.2     1  UNL1        0.0040
     10  C          5.4240    0.5300    1.6090 C.2     1  UNL1        0.0000
     11  C          5.1120    2.1450   -0.0760 C.2     1  UNL1        0.0000
     12  C          4.8770    1.7350    1.2170 C.2     1  UNL1        0.0000
@<TRIPOS>BOND
     1     5     4    1
     2     1     6    1
     3     1     2    1
     4     6     7    1
     5     4     2    1
     6     2     3    2
     7     9     7    2
     8     9    11    1
     9     7     8    1
    10    11    12    2
    11     8    10    2
    12    12    10    1
