@<TRIPOS>MOLECULE
/home/cewinharhar/GITHUB/reincatalyze/data/processed/docking_pred/2023-Apr-25-2248_maxeplen10_maxtrainstep1000_exh16_gamma099_lrac3e-4_lrcr1e-3/12e5788d749ca0b681d4f032b25b6d257325d045_ligand_2.pdbqt
 12 12 0 0 0
SMALL
GASTEIGER

@<TRIPOS>ATOM
      1  C          8.3970   -0.6950   -2.0750 C.3     1  UNL1        0.1270
      2  C          8.4020   -1.9310   -2.8770 C.2     1  UNL1        0.3030
      3  O          7.3030   -2.4280   -3.2430 O.2     1  UNL1       -0.2520
      4  O          9.5910   -2.5740   -3.2510 O.3     1  UNL1       -0.4810
      5  H          9.5810   -3.1720   -4.0660 H       1  UNL1        0.2960
      6  C          7.0480    0.0020   -2.1030 C.3     1  UNL1        0.0470
      7  C          6.4790    0.1160   -0.7340 C.2     1  UNL1       -0.0470
      8  C          6.5910   -0.9320    0.1680 C.2     1  UNL1        0.0040
      9  C          5.8120    1.2440   -0.2930 C.2     1  UNL1        0.0040
     10  C          6.0660   -0.8610    1.4380 C.2     1  UNL1        0.0000
     11  C          5.2870    1.3130    0.9800 C.2     1  UNL1        0.0000
     12  C          5.4010    0.2690    1.8690 C.2     1  UNL1        0.0000
@<TRIPOS>BOND
     1     5     4    1
     2     4     2    1
     3     3     2    2
     4     2     1    1
     5     6     1    1
     6     6     7    1
     7     7     9    2
     8     7     8    1
     9     9    11    1
    10     8    10    2
    11    11    12    2
    12    10    12    1
