@<TRIPOS>MOLECULE
/home/cewinharhar/GITHUB/reincatalyze/data/processed/docking_pred/2023-Apr-25-2248_maxeplen10_maxtrainstep1000_exh16_gamma099_lrac3e-4_lrcr1e-3/12e5788d749ca0b681d4f032b25b6d257325d045_ligand_2.pdbqt
 12 12 0 0 0
SMALL
GASTEIGER

@<TRIPOS>ATOM
      1  C          4.9960    1.7840    0.7460 C.3     1  UNL1        0.1270
      2  C          4.4530    1.1080    1.9370 C.2     1  UNL1        0.3030
      3  O          5.1230    0.1860    2.4770 O.2     1  UNL1       -0.2520
      4  O          3.2130    1.4550    2.4940 O.3     1  UNL1       -0.4810
      5  H          3.0750    2.4040    2.8130 H       1  UNL1        0.2960
      6  C          6.5120    1.8700    0.7770 C.3     1  UNL1        0.0470
      7  C          7.1140    1.0640   -0.3170 C.2     1  UNL1       -0.0470
      8  C          8.4470    1.2280   -0.6660 C.2     1  UNL1        0.0040
      9  C          6.3950    0.1310   -1.0420 C.2     1  UNL1        0.0040
     10  C          9.0300    0.5050   -1.6810 C.2     1  UNL1        0.0000
     11  C          6.9810   -0.5920   -2.0580 C.2     1  UNL1        0.0000
     12  C          8.3040   -0.4230   -2.3990 C.2     1  UNL1        0.0000
@<TRIPOS>BOND
     1    12    11    2
     2    12    10    1
     3    11     9    1
     4    10     8    2
     5     9     7    2
     6     8     7    1
     7     7     6    1
     8     1     6    1
     9     1     2    1
    10     2     3    2
    11     2     4    1
    12     4     5    1
