@<TRIPOS>MOLECULE
/home/cewinharhar/GITHUB/reincatalyze/data/processed/docking_pred/2023-Apr-25-2248_maxeplen10_maxtrainstep1000_exh16_gamma099_lrac3e-4_lrcr1e-3/12e5788d749ca0b681d4f032b25b6d257325d045_ligand_2.pdbqt
 12 12 0 0 0
SMALL
GASTEIGER

@<TRIPOS>ATOM
      1  C          5.0120    1.7900    0.7560 C.3     1  UNL1        0.1270
      2  C          4.4600    1.1090    1.9410 C.2     1  UNL1        0.3030
      3  O          5.1260    0.1830    2.4790 O.2     1  UNL1       -0.2520
      4  O          3.2180    1.4550    2.4920 O.3     1  UNL1       -0.4810
      5  H          2.9560    2.4320    2.5180 H       1  UNL1        0.2960
      6  C          6.5270    1.8810    0.8000 C.3     1  UNL1        0.0470
      7  C          7.1390    1.1000   -0.3060 C.2     1  UNL1       -0.0470
      8  C          6.3850    0.1900   -1.0320 C.2     1  UNL1        0.0040
      9  C          8.4700    1.2240   -0.6620 C.2     1  UNL1        0.0040
     10  C          6.9250   -0.5560   -2.0540 C.2     1  UNL1        0.0000
     11  C          9.0100    0.4760   -1.6860 C.2     1  UNL1        0.0000
     12  C          8.2550   -0.4260   -2.4010 C.2     1  UNL1        0.0000
@<TRIPOS>BOND
     1    12    10    2
     2    12    11    1
     3    10     8    1
     4    11     9    2
     5     8     7    2
     6     9     7    1
     7     7     6    1
     8     1     6    1
     9     1     2    1
    10     2     3    2
    11     2     4    1
    12     4     5    1
