@<TRIPOS>MOLECULE
/home/cewinharhar/GITHUB/reincatalyze/data/processed/docking_pred/2023-Apr-25-2248_maxeplen10_maxtrainstep1000_exh16_gamma099_lrac3e-4_lrcr1e-3/13c3a96d7f073914410e4f6d6c0e2190084e407e_ligand_2.pdbqt
 12 12 0 0 0
SMALL
GASTEIGER

@<TRIPOS>ATOM
      1  C          8.0840   -2.1250    0.7810 C.3     1  UNL1        0.1270
      2  C          8.4220   -3.5300    1.0710 C.2     1  UNL1        0.3030
      3  O          9.6170   -3.9120    0.9400 O.2     1  UNL1       -0.2520
      4  O          7.4590   -4.4590    1.4900 O.3     1  UNL1       -0.4810
      5  H          7.5270   -4.8370    2.4250 H       1  UNL1        0.2960
      6  C          6.8650   -1.6560    1.5550 C.3     1  UNL1        0.0470
      7  C          6.3010   -0.4160    0.9600 C.2     1  UNL1       -0.0470
      8  C          6.5790   -0.0720   -0.3550 C.2     1  UNL1        0.0040
      9  C          5.4920    0.4530    1.6690 C.2     1  UNL1        0.0040
     10  C          6.0810    1.0740   -0.9310 C.2     1  UNL1        0.0000
     11  C          4.9930    1.6000    1.0900 C.2     1  UNL1        0.0000
     12  C          5.2750    1.9350   -0.2150 C.2     1  UNL1        0.0000
@<TRIPOS>BOND
     1    10     8    1
     2    10    12    2
     3     8     7    2
     4    12    11    1
     5     1     2    1
     6     1     6    1
     7     3     2    2
     8     7     6    1
     9     7     9    1
    10     2     4    1
    11    11     9    2
    12     4     5    1
