@<TRIPOS>MOLECULE
/home/cewinharhar/GITHUB/reincatalyze/data/processed/docking_pred/2023-Apr-25-2248_maxeplen10_maxtrainstep1000_exh16_gamma099_lrac3e-4_lrcr1e-3/13c3a96d7f073914410e4f6d6c0e2190084e407e_ligand_2.pdbqt
 12 12 0 0 0
SMALL
GASTEIGER

@<TRIPOS>ATOM
      1  C          5.0330    1.7920    0.7590 C.3     1  UNL1        0.1270
      2  C          4.4680    1.1090    1.9360 C.2     1  UNL1        0.3030
      3  O          5.1230    0.1780    2.4760 O.2     1  UNL1       -0.2520
      4  O          3.2230    1.4610    2.4780 O.3     1  UNL1       -0.4810
      5  H          2.5180    1.8430    1.8620 H       1  UNL1        0.2960
      6  C          6.5500    1.8470    0.8010 C.3     1  UNL1        0.0470
      7  C          7.1430    1.0450   -0.3020 C.2     1  UNL1       -0.0470
      8  C          8.4570    1.2480   -0.6960 C.2     1  UNL1        0.0040
      9  C          6.4320    0.0790   -0.9900 C.2     1  UNL1        0.0040
     10  C          9.0320    0.5300   -1.7200 C.2     1  UNL1        0.0000
     11  C          7.0090   -0.6390   -2.0160 C.2     1  UNL1        0.0000
     12  C          8.3130   -0.4310   -2.4020 C.2     1  UNL1        0.0000
@<TRIPOS>BOND
     1    12    11    2
     2    12    10    1
     3    11     9    1
     4    10     8    2
     5     9     7    2
     6     8     7    1
     7     7     6    1
     8     1     6    1
     9     1     2    1
    10     5     4    1
    11     2     3    2
    12     2     4    1
