MODEL 1
REMARK VINA RESULT:      -7.2      0.000      0.000
REMARK SMILES O=C(O)CCc1ccccc1
REMARK SMILES IDX 4 1 2 2 1 3 3 4 5 6 6 7 7 8 11 9 8 10 10 11 9 12
REMARK H PARENT 3 5
REMARK Flexibility Score: inf
ROOT
ATOM      1  C   UNL     1       8.392  -0.733  -2.044  1.00  0.00     0.127 C 
ENDROOT
BRANCH   1   2
ATOM      2  C   UNL     1       8.427  -1.946  -2.881  1.00  0.00     0.303 C 
ATOM      3  O   UNL     1       9.534  -2.514  -3.090  1.00  0.00    -0.252 OA
BRANCH   2   4
ATOM      4  O   UNL     1       7.270  -2.494  -3.452  1.00  0.00    -0.481 OA
ATOM      5  H   UNL     1       6.906  -2.078  -4.299  1.00  0.00     0.296 HD
ENDBRANCH   2   4
ENDBRANCH   1   2
BRANCH   1   6
ATOM      6  C   UNL     1       7.034  -0.055  -2.074  1.00  0.00     0.047 C 
BRANCH   6   7
ATOM      7  C   UNL     1       6.468   0.063  -0.705  1.00  0.00    -0.047 A 
ATOM      8  C   UNL     1       6.580  -0.983   0.200  1.00  0.00     0.004 A 
ATOM      9  C   UNL     1       5.802   1.192  -0.265  1.00  0.00     0.004 A 
ATOM     10  C   UNL     1       6.058  -0.908   1.471  1.00  0.00     0.000 A 
ATOM     11  C   UNL     1       5.279   1.265   1.008  1.00  0.00     0.000 A 
ATOM     12  C   UNL     1       5.394   0.223   1.900  1.00  0.00     0.000 A 
ENDBRANCH   6   7
ENDBRANCH   1   6
TORSDOF 4
ENDMDL
MODEL 2
REMARK VINA RESULT:      -7.2      0.038      1.421
REMARK SMILES O=C(O)CCc1ccccc1
REMARK SMILES IDX 4 1 2 2 1 3 3 4 5 6 6 7 7 8 11 9 8 10 10 11 9 12
REMARK H PARENT 3 5
REMARK Flexibility Score: inf
ROOT
ATOM      1  C   UNL     1       8.414  -0.684  -2.100  1.00  0.00     0.127 C 
ENDROOT
BRANCH   1   2
ATOM      2  C   UNL     1       8.433  -1.925  -2.894  1.00  0.00     0.303 C 
ATOM      3  O   UNL     1       9.534  -2.508  -3.092  1.00  0.00    -0.252 OA
BRANCH   2   4
ATOM      4  O   UNL     1       7.267  -2.483  -3.438  1.00  0.00    -0.481 OA
ATOM      5  H   UNL     1       6.390  -2.000  -3.299  1.00  0.00     0.296 HD
ENDBRANCH   2   4
ENDBRANCH   1   2
BRANCH   1   6
ATOM      6  C   UNL     1       7.045  -0.027  -2.096  1.00  0.00     0.047 C 
BRANCH   6   7
ATOM      7  C   UNL     1       6.489   0.035  -0.719  1.00  0.00    -0.047 A 
ATOM      8  C   UNL     1       5.826   1.170  -0.274  1.00  0.00     0.004 A 
ATOM      9  C   UNL     1       6.604  -1.007   0.183  1.00  0.00     0.004 A 
ATOM     10  C   UNL     1       5.309   1.263   0.998  1.00  0.00     0.000 A 
ATOM     11  C   UNL     1       6.086  -0.913   1.456  1.00  0.00     0.000 A 
ATOM     12  C   UNL     1       5.431   0.217   1.891  1.00  0.00     0.000 A 
ENDBRANCH   6   7
ENDBRANCH   1   6
TORSDOF 4
ENDMDL
MODEL 3
REMARK VINA RESULT:      -7.2      2.533      3.251
REMARK SMILES O=C(O)CCc1ccccc1
REMARK SMILES IDX 4 1 2 2 1 3 3 4 5 6 6 7 7 8 11 9 8 10 10 11 9 12
REMARK H PARENT 3 5
REMARK Flexibility Score: inf
ROOT
ATOM      1  C   UNL     1       8.084  -2.125   0.781  1.00  0.00     0.127 C 
ENDROOT
BRANCH   1   2
ATOM      2  C   UNL     1       8.422  -3.530   1.071  1.00  0.00     0.303 C 
ATOM      3  O   UNL     1       9.617  -3.912   0.940  1.00  0.00    -0.252 OA
BRANCH   2   4
ATOM      4  O   UNL     1       7.459  -4.459   1.490  1.00  0.00    -0.481 OA
ATOM      5  H   UNL     1       7.527  -4.837   2.425  1.00  0.00     0.296 HD
ENDBRANCH   2   4
ENDBRANCH   1   2
BRANCH   1   6
ATOM      6  C   UNL     1       6.865  -1.656   1.555  1.00  0.00     0.047 C 
BRANCH   6   7
ATOM      7  C   UNL     1       6.301  -0.416   0.960  1.00  0.00    -0.047 A 
ATOM      8  C   UNL     1       6.579  -0.072  -0.355  1.00  0.00     0.004 A 
ATOM      9  C   UNL     1       5.492   0.453   1.669  1.00  0.00     0.004 A 
ATOM     10  C   UNL     1       6.081   1.074  -0.931  1.00  0.00     0.000 A 
ATOM     11  C   UNL     1       4.993   1.600   1.090  1.00  0.00     0.000 A 
ATOM     12  C   UNL     1       5.275   1.935  -0.215  1.00  0.00     0.000 A 
ENDBRANCH   6   7
ENDBRANCH   1   6
TORSDOF 4
ENDMDL
MODEL 4
REMARK VINA RESULT:      -7.0      0.669      1.613
REMARK SMILES O=C(O)CCc1ccccc1
REMARK SMILES IDX 4 1 2 2 1 3 3 4 5 6 6 7 7 8 11 9 8 10 10 11 9 12
REMARK H PARENT 3 5
REMARK Flexibility Score: inf
ROOT
ATOM      1  C   UNL     1       8.260  -0.818  -2.033  1.00  0.00     0.127 C 
ENDROOT
BRANCH   1   2
ATOM      2  C   UNL     1       8.356  -1.989  -2.922  1.00  0.00     0.303 C 
ATOM      3  O   UNL     1       9.486  -2.511  -3.127  1.00  0.00    -0.252 OA
BRANCH   2   4
ATOM      4  O   UNL     1       7.232  -2.546  -3.549  1.00  0.00    -0.481 OA
ATOM      5  H   UNL     1       7.376  -3.225  -4.284  1.00  0.00     0.296 HD
ENDBRANCH   2   4
ENDBRANCH   1   2
BRANCH   1   6
ATOM      6  C   UNL     1       7.851  -1.200  -0.622  1.00  0.00     0.047 C 
BRANCH   6   7
ATOM      7  C   UNL     1       6.855  -0.240  -0.077  1.00  0.00    -0.047 A 
ATOM      8  C   UNL     1       6.374   0.800  -0.860  1.00  0.00     0.004 A 
ATOM      9  C   UNL     1       6.369  -0.319   1.215  1.00  0.00     0.004 A 
ATOM     10  C   UNL     1       5.460   1.711  -0.382  1.00  0.00     0.000 A 
ATOM     11  C   UNL     1       5.454   0.595   1.692  1.00  0.00     0.000 A 
ATOM     12  C   UNL     1       4.982   1.625   0.910  1.00  0.00     0.000 A 
ENDBRANCH   6   7
ENDBRANCH   1   6
TORSDOF 4
ENDMDL
MODEL 5
REMARK VINA RESULT:      -6.7      3.408      5.118
REMARK SMILES O=C(O)CCc1ccccc1
REMARK SMILES IDX 4 1 2 2 1 3 3 4 5 6 6 7 7 8 11 9 8 10 10 11 9 12
REMARK H PARENT 3 5
REMARK Flexibility Score: inf
ROOT
ATOM      1  C   UNL     1       5.033   1.792   0.759  1.00  0.00     0.127 C 
ENDROOT
BRANCH   1   2
ATOM      2  C   UNL     1       4.468   1.109   1.936  1.00  0.00     0.303 C 
ATOM      3  O   UNL     1       5.123   0.178   2.476  1.00  0.00    -0.252 OA
BRANCH   2   4
ATOM      4  O   UNL     1       3.223   1.461   2.478  1.00  0.00    -0.481 OA
ATOM      5  H   UNL     1       2.518   1.843   1.862  1.00  0.00     0.296 HD
ENDBRANCH   2   4
ENDBRANCH   1   2
BRANCH   1   6
ATOM      6  C   UNL     1       6.550   1.847   0.801  1.00  0.00     0.047 C 
BRANCH   6   7
ATOM      7  C   UNL     1       7.143   1.045  -0.302  1.00  0.00    -0.047 A 
ATOM      8  C   UNL     1       8.457   1.248  -0.696  1.00  0.00     0.004 A 
ATOM      9  C   UNL     1       6.432   0.079  -0.990  1.00  0.00     0.004 A 
ATOM     10  C   UNL     1       9.032   0.530  -1.720  1.00  0.00     0.000 A 
ATOM     11  C   UNL     1       7.009  -0.639  -2.016  1.00  0.00     0.000 A 
ATOM     12  C   UNL     1       8.313  -0.431  -2.402  1.00  0.00     0.000 A 
ENDBRANCH   6   7
ENDBRANCH   1   6
TORSDOF 4
ENDMDL
