@<TRIPOS>MOLECULE
/home/cewinharhar/GITHUB/reincatalyze/data/processed/docking_pred/2023-Apr-25-2248_maxeplen10_maxtrainstep1000_exh16_gamma099_lrac3e-4_lrcr1e-3/13c3a96d7f073914410e4f6d6c0e2190084e407e_ligand_2.pdbqt
 12 12 0 0 0
SMALL
GASTEIGER

@<TRIPOS>ATOM
      1  C          8.3920   -0.7330   -2.0440 C.3     1  UNL1        0.1270
      2  C          8.4270   -1.9460   -2.8810 C.2     1  UNL1        0.3030
      3  O          9.5340   -2.5140   -3.0900 O.2     1  UNL1       -0.2520
      4  O          7.2700   -2.4940   -3.4520 O.3     1  UNL1       -0.4810
      5  H          6.9060   -2.0780   -4.2990 H       1  UNL1        0.2960
      6  C          7.0340   -0.0550   -2.0740 C.3     1  UNL1        0.0470
      7  C          6.4680    0.0630   -0.7050 C.2     1  UNL1       -0.0470
      8  C          6.5800   -0.9830    0.2000 C.2     1  UNL1        0.0040
      9  C          5.8020    1.1920   -0.2650 C.2     1  UNL1        0.0040
     10  C          6.0580   -0.9080    1.4710 C.2     1  UNL1        0.0000
     11  C          5.2790    1.2650    1.0080 C.2     1  UNL1        0.0000
     12  C          5.3940    0.2230    1.9000 C.2     1  UNL1        0.0000
@<TRIPOS>BOND
     1     5     4    1
     2     4     2    1
     3     3     2    2
     4     2     1    1
     5     6     1    1
     6     6     7    1
     7     7     9    2
     8     7     8    1
     9     9    11    1
    10     8    10    2
    11    11    12    2
    12    10    12    1
