@<TRIPOS>MOLECULE
/home/cewinharhar/GITHUB/reincatalyze/data/processed/docking_pred/2023-Apr-25-2248_maxeplen10_maxtrainstep1000_exh16_gamma099_lrac3e-4_lrcr1e-3/13c3a96d7f073914410e4f6d6c0e2190084e407e_ligand_2.pdbqt
 12 12 0 0 0
SMALL
GASTEIGER

@<TRIPOS>ATOM
      1  C          8.2600   -0.8180   -2.0330 C.3     1  UNL1        0.1270
      2  C          8.3560   -1.9890   -2.9220 C.2     1  UNL1        0.3030
      3  O          9.4860   -2.5110   -3.1270 O.2     1  UNL1       -0.2520
      4  O          7.2320   -2.5460   -3.5490 O.3     1  UNL1       -0.4810
      5  H          7.3760   -3.2250   -4.2840 H       1  UNL1        0.2960
      6  C          7.8510   -1.2000   -0.6220 C.3     1  UNL1        0.0470
      7  C          6.8550   -0.2400   -0.0770 C.2     1  UNL1       -0.0470
      8  C          6.3740    0.8000   -0.8600 C.2     1  UNL1        0.0040
      9  C          6.3690   -0.3190    1.2150 C.2     1  UNL1        0.0040
     10  C          5.4600    1.7110   -0.3820 C.2     1  UNL1        0.0000
     11  C          5.4540    0.5950    1.6920 C.2     1  UNL1        0.0000
     12  C          4.9820    1.6250    0.9100 C.2     1  UNL1        0.0000
@<TRIPOS>BOND
     1     5     4    1
     2     4     2    1
     3     3     2    2
     4     2     1    1
     5     1     6    1
     6     8    10    1
     7     8     7    2
     8     6     7    1
     9    10    12    2
    10     7     9    1
    11    12    11    1
    12     9    11    2
