@<TRIPOS>MOLECULE
/home/cewinharhar/GITHUB/reincatalyze/data/processed/docking_pred/2023-Apr-25-2248_maxeplen10_maxtrainstep1000_exh16_gamma099_lrac3e-4_lrcr1e-3/13c3a96d7f073914410e4f6d6c0e2190084e407e_ligand_2.pdbqt
 12 12 0 0 0
SMALL
GASTEIGER

@<TRIPOS>ATOM
      1  C          8.4140   -0.6840   -2.1000 C.3     1  UNL1        0.1270
      2  C          8.4330   -1.9250   -2.8940 C.2     1  UNL1        0.3030
      3  O          9.5340   -2.5080   -3.0920 O.2     1  UNL1       -0.2520
      4  O          7.2670   -2.4830   -3.4380 O.3     1  UNL1       -0.4810
      5  H          6.3900   -2.0000   -3.2990 H       1  UNL1        0.2960
      6  C          7.0450   -0.0270   -2.0960 C.3     1  UNL1        0.0470
      7  C          6.4890    0.0350   -0.7190 C.2     1  UNL1       -0.0470
      8  C          5.8260    1.1700   -0.2740 C.2     1  UNL1        0.0040
      9  C          6.6040   -1.0070    0.1830 C.2     1  UNL1        0.0040
     10  C          5.3090    1.2630    0.9980 C.2     1  UNL1        0.0000
     11  C          6.0860   -0.9130    1.4560 C.2     1  UNL1        0.0000
     12  C          5.4310    0.2170    1.8910 C.2     1  UNL1        0.0000
@<TRIPOS>BOND
     1     4     5    1
     2     4     2    1
     3     3     2    2
     4     2     1    1
     5     1     6    1
     6     6     7    1
     7     7     8    2
     8     7     9    1
     9     8    10    1
    10     9    11    2
    11    10    12    2
    12    11    12    1
