MODEL 1
REMARK VINA RESULT:      -7.3      0.000      0.000
REMARK SMILES O=C(O)CCc1ccccc1
REMARK SMILES IDX 4 1 2 2 1 3 3 4 5 6 6 7 7 8 11 9 8 10 10 11 9 12
REMARK H PARENT 3 5
REMARK Flexibility Score: inf
ROOT
ATOM      1  C   UNL     1       8.429  -0.660  -2.135  1.00  0.00     0.127 C 
ENDROOT
BRANCH   1   2
ATOM      2  C   UNL     1       8.452  -1.917  -2.904  1.00  0.00     0.303 C 
ATOM      3  O   UNL     1       9.556  -2.497  -3.095  1.00  0.00    -0.252 OA
BRANCH   2   4
ATOM      4  O   UNL     1       7.288  -2.494  -3.431  1.00  0.00    -0.481 OA
ATOM      5  H   UNL     1       7.069  -3.450  -3.187  1.00  0.00     0.296 HD
ENDBRANCH   2   4
ENDBRANCH   1   2
BRANCH   1   6
ATOM      6  C   UNL     1       7.061  -0.001  -2.156  1.00  0.00     0.047 C 
BRANCH   6   7
ATOM      7  C   UNL     1       6.504   0.113  -0.783  1.00  0.00    -0.047 A 
ATOM      8  C   UNL     1       6.637  -0.929   0.124  1.00  0.00     0.004 A 
ATOM      9  C   UNL     1       5.828   1.235  -0.340  1.00  0.00     0.004 A 
ATOM     10  C   UNL     1       6.124  -0.858   1.398  1.00  0.00     0.000 A 
ATOM     11  C   UNL     1       5.314   1.304   0.937  1.00  0.00     0.000 A 
ATOM     12  C   UNL     1       5.448   0.265   1.830  1.00  0.00     0.000 A 
ENDBRANCH   6   7
ENDBRANCH   1   6
TORSDOF 4
ENDMDL
MODEL 2
REMARK VINA RESULT:      -7.3      0.063      1.422
REMARK SMILES O=C(O)CCc1ccccc1
REMARK SMILES IDX 4 1 2 2 1 3 3 4 5 6 6 7 7 8 11 9 8 10 10 11 9 12
REMARK H PARENT 3 5
REMARK Flexibility Score: inf
ROOT
ATOM      1  C   UNL     1       8.420  -0.610  -2.169  1.00  0.00     0.127 C 
ENDROOT
BRANCH   1   2
ATOM      2  C   UNL     1       8.446  -1.886  -2.906  1.00  0.00     0.303 C 
ATOM      3  O   UNL     1       9.550  -2.469  -3.081  1.00  0.00    -0.252 OA
BRANCH   2   4
ATOM      4  O   UNL     1       7.283  -2.477  -3.420  1.00  0.00    -0.481 OA
ATOM      5  H   UNL     1       7.179  -3.480  -3.349  1.00  0.00     0.296 HD
ENDBRANCH   2   4
ENDBRANCH   1   2
BRANCH   1   6
ATOM      6  C   UNL     1       7.033   0.007  -2.140  1.00  0.00     0.047 C 
BRANCH   6   7
ATOM      7  C   UNL     1       6.499   0.053  -0.753  1.00  0.00    -0.047 A 
ATOM      8  C   UNL     1       5.853   1.186  -0.281  1.00  0.00     0.004 A 
ATOM      9  C   UNL     1       6.621  -1.004   0.131  1.00  0.00     0.004 A 
ATOM     10  C   UNL     1       5.358   1.264   1.001  1.00  0.00     0.000 A 
ATOM     11  C   UNL     1       6.124  -0.925   1.414  1.00  0.00     0.000 A 
ATOM     12  C   UNL     1       5.485   0.204   1.876  1.00  0.00     0.000 A 
ENDBRANCH   6   7
ENDBRANCH   1   6
TORSDOF 4
ENDMDL
MODEL 3
REMARK VINA RESULT:      -6.8      3.394      5.081
REMARK SMILES O=C(O)CCc1ccccc1
REMARK SMILES IDX 4 1 2 2 1 3 3 4 5 6 6 7 7 8 11 9 8 10 10 11 9 12
REMARK H PARENT 3 5
REMARK Flexibility Score: inf
ROOT
ATOM      1  C   UNL     1       5.027   1.800   0.745  1.00  0.00     0.127 C 
ENDROOT
BRANCH   1   2
ATOM      2  C   UNL     1       4.479   1.114   1.929  1.00  0.00     0.303 C 
ATOM      3  O   UNL     1       5.153   0.197   2.472  1.00  0.00    -0.252 OA
BRANCH   2   4
ATOM      4  O   UNL     1       3.232   1.449   2.477  1.00  0.00    -0.481 OA
ATOM      5  H   UNL     1       2.897   0.922   3.272  1.00  0.00     0.296 HD
ENDBRANCH   2   4
ENDBRANCH   1   2
BRANCH   1   6
ATOM      6  C   UNL     1       6.541   1.897   0.788  1.00  0.00     0.047 C 
BRANCH   6   7
ATOM      7  C   UNL     1       7.156   1.119  -0.320  1.00  0.00    -0.047 A 
ATOM      8  C   UNL     1       6.394   0.241  -1.076  1.00  0.00     0.004 A 
ATOM      9  C   UNL     1       8.496   1.216  -0.648  1.00  0.00     0.004 A 
ATOM     10  C   UNL     1       6.935  -0.501  -2.101  1.00  0.00     0.000 A 
ATOM     11  C   UNL     1       9.037   0.472  -1.675  1.00  0.00     0.000 A 
ATOM     12  C   UNL     1       8.274  -0.398  -2.419  1.00  0.00     0.000 A 
ENDBRANCH   6   7
ENDBRANCH   1   6
TORSDOF 4
ENDMDL
MODEL 4
REMARK VINA RESULT:      -6.6      1.877      2.839
REMARK SMILES O=C(O)CCc1ccccc1
REMARK SMILES IDX 4 1 2 2 1 3 3 4 5 6 6 7 7 8 11 9 8 10 10 11 9 12
REMARK H PARENT 3 5
REMARK Flexibility Score: inf
ROOT
ATOM      1  C   UNL     1       8.201  -1.644   1.083  1.00  0.00     0.127 C 
ENDROOT
BRANCH   1   2
ATOM      2  C   UNL     1       8.520  -2.845   0.291  1.00  0.00     0.303 C 
ATOM      3  O   UNL     1       9.185  -3.773   0.827  1.00  0.00    -0.252 OA
BRANCH   2   4
ATOM      4  O   UNL     1       8.106  -2.994  -1.040  1.00  0.00    -0.481 OA
ATOM      5  H   UNL     1       8.109  -3.920  -1.447  1.00  0.00     0.296 HD
ENDBRANCH   2   4
ENDBRANCH   1   2
BRANCH   1   6
ATOM      6  C   UNL     1       6.716  -1.526   1.375  1.00  0.00     0.047 C 
BRANCH   6   7
ATOM      7  C   UNL     1       6.167  -0.253   0.839  1.00  0.00    -0.047 A 
ATOM      8  C   UNL     1       6.420   0.131  -0.470  1.00  0.00     0.004 A 
ATOM      9  C   UNL     1       5.397   0.609   1.598  1.00  0.00     0.004 A 
ATOM     10  C   UNL     1       5.935   1.307  -0.993  1.00  0.00     0.000 A 
ATOM     11  C   UNL     1       4.912   1.787   1.073  1.00  0.00     0.000 A 
ATOM     12  C   UNL     1       5.169   2.162  -0.226  1.00  0.00     0.000 A 
ENDBRANCH   6   7
ENDBRANCH   1   6
TORSDOF 4
ENDMDL
MODEL 5
REMARK VINA RESULT:      -6.6      3.842      5.023
REMARK SMILES O=C(O)CCc1ccccc1
REMARK SMILES IDX 4 1 2 2 1 3 3 4 5 6 6 7 7 8 11 9 8 10 10 11 9 12
REMARK H PARENT 3 5
REMARK Flexibility Score: inf
ROOT
ATOM      1  C   UNL     1       5.519   2.851   0.122  1.00  0.00     0.127 C 
ENDROOT
BRANCH   1   2
ATOM      2  C   UNL     1       6.284   3.838   0.905  1.00  0.00     0.303 C 
ATOM      3  O   UNL     1       6.874   4.774   0.301  1.00  0.00    -0.252 OA
BRANCH   2   4
ATOM      4  O   UNL     1       6.377   3.773   2.303  1.00  0.00    -0.481 OA
ATOM      5  H   UNL     1       6.871   4.510   2.789  1.00  0.00     0.296 HD
ENDBRANCH   2   4
ENDBRANCH   1   2
BRANCH   1   6
ATOM      6  C   UNL     1       4.943   1.749   0.993  1.00  0.00     0.047 C 
BRANCH   6   7
ATOM      7  C   UNL     1       5.819   0.549   0.983  1.00  0.00    -0.047 A 
ATOM      8  C   UNL     1       6.656   0.293  -0.093  1.00  0.00     0.004 A 
ATOM      9  C   UNL     1       5.844  -0.368   2.018  1.00  0.00     0.004 A 
ATOM     10  C   UNL     1       7.471  -0.815  -0.137  1.00  0.00     0.000 A 
ATOM     11  C   UNL     1       6.661  -1.477   1.973  1.00  0.00     0.000 A 
ATOM     12  C   UNL     1       7.488  -1.725   0.901  1.00  0.00     0.000 A 
ENDBRANCH   6   7
ENDBRANCH   1   6
TORSDOF 4
ENDMDL
