@<TRIPOS>MOLECULE
/home/cewinharhar/GITHUB/reincatalyze/data/processed/docking_pred/2023-Apr-25-2248_maxeplen10_maxtrainstep1000_exh16_gamma099_lrac3e-4_lrcr1e-3/13e8c6f9c16a4fbf8ad14846e02839591438c51f_ligand_2.pdbqt
 12 12 0 0 0
SMALL
GASTEIGER

@<TRIPOS>ATOM
      1  C          8.4290   -0.6600   -2.1350 C.3     1  UNL1        0.1270
      2  C          8.4520   -1.9170   -2.9040 C.2     1  UNL1        0.3030
      3  O          9.5560   -2.4970   -3.0950 O.2     1  UNL1       -0.2520
      4  O          7.2880   -2.4940   -3.4310 O.3     1  UNL1       -0.4810
      5  H          7.0690   -3.4500   -3.1870 H       1  UNL1        0.2960
      6  C          7.0610   -0.0010   -2.1560 C.3     1  UNL1        0.0470
      7  C          6.5040    0.1130   -0.7830 C.2     1  UNL1       -0.0470
      8  C          6.6370   -0.9290    0.1240 C.2     1  UNL1        0.0040
      9  C          5.8280    1.2350   -0.3400 C.2     1  UNL1        0.0040
     10  C          6.1240   -0.8580    1.3980 C.2     1  UNL1        0.0000
     11  C          5.3140    1.3040    0.9370 C.2     1  UNL1        0.0000
     12  C          5.4480    0.2650    1.8300 C.2     1  UNL1        0.0000
@<TRIPOS>BOND
     1     4     5    1
     2     4     2    1
     3     3     2    2
     4     2     1    1
     5     6     1    1
     6     6     7    1
     7     7     9    2
     8     7     8    1
     9     9    11    1
    10     8    10    2
    11    11    12    2
    12    10    12    1
