@<TRIPOS>MOLECULE
/home/cewinharhar/GITHUB/reincatalyze/data/processed/docking_pred/2023-Apr-25-2248_maxeplen10_maxtrainstep1000_exh16_gamma099_lrac3e-4_lrcr1e-3/13e8c6f9c16a4fbf8ad14846e02839591438c51f_ligand_2.pdbqt
 12 12 0 0 0
SMALL
GASTEIGER

@<TRIPOS>ATOM
      1  C          5.0270    1.8000    0.7450 C.3     1  UNL1        0.1270
      2  C          4.4790    1.1140    1.9290 C.2     1  UNL1        0.3030
      3  O          5.1530    0.1970    2.4720 O.2     1  UNL1       -0.2520
      4  O          3.2320    1.4490    2.4770 O.3     1  UNL1       -0.4810
      5  H          2.8970    0.9220    3.2720 H       1  UNL1        0.2960
      6  C          6.5410    1.8970    0.7880 C.3     1  UNL1        0.0470
      7  C          7.1560    1.1190   -0.3200 C.2     1  UNL1       -0.0470
      8  C          6.3940    0.2410   -1.0760 C.2     1  UNL1        0.0040
      9  C          8.4960    1.2160   -0.6480 C.2     1  UNL1        0.0040
     10  C          6.9350   -0.5010   -2.1010 C.2     1  UNL1        0.0000
     11  C          9.0370    0.4720   -1.6750 C.2     1  UNL1        0.0000
     12  C          8.2740   -0.3980   -2.4190 C.2     1  UNL1        0.0000
@<TRIPOS>BOND
     1    12    10    2
     2    12    11    1
     3    10     8    1
     4    11     9    2
     5     8     7    2
     6     9     7    1
     7     7     6    1
     8     1     6    1
     9     1     2    1
    10     2     3    2
    11     2     4    1
    12     4     5    1
