@<TRIPOS>MOLECULE
/home/cewinharhar/GITHUB/reincatalyze/data/processed/docking_pred/2023-Apr-25-2248_maxeplen10_maxtrainstep1000_exh16_gamma099_lrac3e-4_lrcr1e-3/13e8c6f9c16a4fbf8ad14846e02839591438c51f_ligand_2.pdbqt
 12 12 0 0 0
SMALL
GASTEIGER

@<TRIPOS>ATOM
      1  C          5.5190    2.8510    0.1220 C.3     1  UNL1        0.1270
      2  C          6.2840    3.8380    0.9050 C.2     1  UNL1        0.3030
      3  O          6.8740    4.7740    0.3010 O.2     1  UNL1       -0.2520
      4  O          6.3770    3.7730    2.3030 O.3     1  UNL1       -0.4810
      5  H          6.8710    4.5100    2.7890 H       1  UNL1        0.2960
      6  C          4.9430    1.7490    0.9930 C.3     1  UNL1        0.0470
      7  C          5.8190    0.5490    0.9830 C.2     1  UNL1       -0.0470
      8  C          6.6560    0.2930   -0.0930 C.2     1  UNL1        0.0040
      9  C          5.8440   -0.3680    2.0180 C.2     1  UNL1        0.0040
     10  C          7.4710   -0.8150   -0.1370 C.2     1  UNL1        0.0000
     11  C          6.6610   -1.4770    1.9730 C.2     1  UNL1        0.0000
     12  C          7.4880   -1.7250    0.9010 C.2     1  UNL1        0.0000
@<TRIPOS>BOND
     1    10     8    1
     2    10    12    2
     3     8     7    2
     4     1     2    1
     5     1     6    1
     6     3     2    2
     7    12    11    1
     8     2     4    1
     9     7     6    1
    10     7     9    1
    11    11     9    2
    12     4     5    1
