@<TRIPOS>MOLECULE
/home/cewinharhar/GITHUB/reincatalyze/data/processed/docking_pred/2023-Apr-25-2248_maxeplen10_maxtrainstep1000_exh16_gamma099_lrac3e-4_lrcr1e-3/13e8c6f9c16a4fbf8ad14846e02839591438c51f_ligand_2.pdbqt
 12 12 0 0 0
SMALL
GASTEIGER

@<TRIPOS>ATOM
      1  C          8.4200   -0.6100   -2.1690 C.3     1  UNL1        0.1270
      2  C          8.4460   -1.8860   -2.9060 C.2     1  UNL1        0.3030
      3  O          9.5500   -2.4690   -3.0810 O.2     1  UNL1       -0.2520
      4  O          7.2830   -2.4770   -3.4200 O.3     1  UNL1       -0.4810
      5  H          7.1790   -3.4800   -3.3490 H       1  UNL1        0.2960
      6  C          7.0330    0.0070   -2.1400 C.3     1  UNL1        0.0470
      7  C          6.4990    0.0530   -0.7530 C.2     1  UNL1       -0.0470
      8  C          5.8530    1.1860   -0.2810 C.2     1  UNL1        0.0040
      9  C          6.6210   -1.0040    0.1310 C.2     1  UNL1        0.0040
     10  C          5.3580    1.2640    1.0010 C.2     1  UNL1        0.0000
     11  C          6.1240   -0.9250    1.4140 C.2     1  UNL1        0.0000
     12  C          5.4850    0.2040    1.8760 C.2     1  UNL1        0.0000
@<TRIPOS>BOND
     1     4     5    1
     2     4     2    1
     3     3     2    2
     4     2     1    1
     5     1     6    1
     6     6     7    1
     7     7     8    2
     8     7     9    1
     9     8    10    1
    10     9    11    2
    11    10    12    2
    12    11    12    1
