MODEL 1
REMARK VINA RESULT:      -7.3      0.000      0.000
REMARK SMILES O=C(O)CCc1ccccc1
REMARK SMILES IDX 4 1 2 2 1 3 3 4 5 6 6 7 7 8 11 9 8 10 10 11 9 12
REMARK H PARENT 3 5
REMARK Flexibility Score: inf
ROOT
ATOM      1  C   UNL     1       8.426  -0.621  -2.190  1.00  0.00     0.127 C 
ENDROOT
BRANCH   1   2
ATOM      2  C   UNL     1       8.446  -1.908  -2.908  1.00  0.00     0.303 C 
ATOM      3  O   UNL     1       9.545  -2.508  -3.060  1.00  0.00    -0.252 OA
BRANCH   2   4
ATOM      4  O   UNL     1       7.282  -2.492  -3.430  1.00  0.00    -0.481 OA
ATOM      5  H   UNL     1       7.350  -3.020  -4.289  1.00  0.00     0.296 HD
ENDBRANCH   2   4
ENDBRANCH   1   2
BRANCH   1   6
ATOM      6  C   UNL     1       7.043   0.005  -2.173  1.00  0.00     0.047 C 
BRANCH   6   7
ATOM      7  C   UNL     1       6.503   0.065  -0.789  1.00  0.00    -0.047 A 
ATOM      8  C   UNL     1       5.847   1.200  -0.334  1.00  0.00     0.004 A 
ATOM      9  C   UNL     1       6.628  -0.979   0.109  1.00  0.00     0.004 A 
ATOM     10  C   UNL     1       5.345   1.291   0.944  1.00  0.00     0.000 A 
ATOM     11  C   UNL     1       6.125  -0.886   1.389  1.00  0.00     0.000 A 
ATOM     12  C   UNL     1       5.477   0.244   1.833  1.00  0.00     0.000 A 
ENDBRANCH   6   7
ENDBRANCH   1   6
TORSDOF 4
ENDMDL
MODEL 2
REMARK VINA RESULT:      -7.3      0.142      1.725
REMARK SMILES O=C(O)CCc1ccccc1
REMARK SMILES IDX 4 1 2 2 1 3 3 4 5 6 6 7 7 8 11 9 8 10 10 11 9 12
REMARK H PARENT 3 5
REMARK Flexibility Score: inf
ROOT
ATOM      1  C   UNL     1       8.405  -0.712  -2.049  1.00  0.00     0.127 C 
ENDROOT
BRANCH   1   2
ATOM      2  C   UNL     1       8.395  -1.934  -2.872  1.00  0.00     0.303 C 
ATOM      3  O   UNL     1       7.290  -2.413  -3.244  1.00  0.00    -0.252 OA
BRANCH   2   4
ATOM      4  O   UNL     1       9.576  -2.584  -3.260  1.00  0.00    -0.481 OA
ATOM      5  H   UNL     1       9.554  -3.181  -4.075  1.00  0.00     0.296 HD
ENDBRANCH   2   4
ENDBRANCH   1   2
BRANCH   1   6
ATOM      6  C   UNL     1       7.079   0.025  -2.101  1.00  0.00     0.047 C 
BRANCH   6   7
ATOM      7  C   UNL     1       6.489   0.158  -0.744  1.00  0.00    -0.047 A 
ATOM      8  C   UNL     1       6.613  -0.866   0.185  1.00  0.00     0.004 A 
ATOM      9  C   UNL     1       5.789   1.279  -0.338  1.00  0.00     0.004 A 
ATOM     10  C   UNL     1       6.069  -0.778   1.446  1.00  0.00     0.000 A 
ATOM     11  C   UNL     1       5.245   1.366   0.926  1.00  0.00     0.000 A 
ATOM     12  C   UNL     1       5.371   0.345   1.841  1.00  0.00     0.000 A 
ENDBRANCH   6   7
ENDBRANCH   1   6
TORSDOF 4
ENDMDL
MODEL 3
REMARK VINA RESULT:      -7.2      0.678      1.225
REMARK SMILES O=C(O)CCc1ccccc1
REMARK SMILES IDX 4 1 2 2 1 3 3 4 5 6 6 7 7 8 11 9 8 10 10 11 9 12
REMARK H PARENT 3 5
REMARK Flexibility Score: inf
ROOT
ATOM      1  C   UNL     1       8.120  -0.910  -1.932  1.00  0.00     0.127 C 
ENDROOT
BRANCH   1   2
ATOM      2  C   UNL     1       8.317  -2.007  -2.896  1.00  0.00     0.303 C 
ATOM      3  O   UNL     1       9.482  -2.447  -3.093  1.00  0.00    -0.252 OA
BRANCH   2   4
ATOM      4  O   UNL     1       7.251  -2.583  -3.602  1.00  0.00    -0.481 OA
ATOM      5  H   UNL     1       7.062  -3.568  -3.475  1.00  0.00     0.296 HD
ENDBRANCH   2   4
ENDBRANCH   1   2
BRANCH   1   6
ATOM      6  C   UNL     1       7.422  -1.376  -0.667  1.00  0.00     0.047 C 
BRANCH   6   7
ATOM      7  C   UNL     1       6.563  -0.301  -0.105  1.00  0.00    -0.047 A 
ATOM      8  C   UNL     1       6.213   0.799  -0.875  1.00  0.00     0.004 A 
ATOM      9  C   UNL     1       6.081  -0.328   1.191  1.00  0.00     0.004 A 
ATOM     10  C   UNL     1       5.428   1.816  -0.381  1.00  0.00     0.000 A 
ATOM     11  C   UNL     1       5.295   0.691   1.683  1.00  0.00     0.000 A 
ATOM     12  C   UNL     1       4.953   1.780   0.914  1.00  0.00     0.000 A 
ENDBRANCH   6   7
ENDBRANCH   1   6
TORSDOF 4
ENDMDL
MODEL 4
REMARK VINA RESULT:      -6.8      3.396      5.082
REMARK SMILES O=C(O)CCc1ccccc1
REMARK SMILES IDX 4 1 2 2 1 3 3 4 5 6 6 7 7 8 11 9 8 10 10 11 9 12
REMARK H PARENT 3 5
REMARK Flexibility Score: inf
ROOT
ATOM      1  C   UNL     1       4.977   1.780   0.699  1.00  0.00     0.127 C 
ENDROOT
BRANCH   1   2
ATOM      2  C   UNL     1       4.463   1.122   1.913  1.00  0.00     0.303 C 
ATOM      3  O   UNL     1       5.157   0.225   2.463  1.00  0.00    -0.252 OA
BRANCH   2   4
ATOM      4  O   UNL     1       3.226   1.461   2.481  1.00  0.00    -0.481 OA
ATOM      5  H   UNL     1       2.580   2.015   1.936  1.00  0.00     0.296 HD
ENDBRANCH   2   4
ENDBRANCH   1   2
BRANCH   1   6
ATOM      6  C   UNL     1       6.486   1.943   0.729  1.00  0.00     0.047 C 
BRANCH   6   7
ATOM      7  C   UNL     1       7.130   1.140  -0.343  1.00  0.00    -0.047 A 
ATOM      8  C   UNL     1       6.386   0.254  -1.107  1.00  0.00     0.004 A 
ATOM      9  C   UNL     1       8.481   1.221  -0.629  1.00  0.00     0.004 A 
ATOM     10  C   UNL     1       6.955  -0.511  -2.100  1.00  0.00     0.000 A 
ATOM     11  C   UNL     1       9.049   0.454  -1.623  1.00  0.00     0.000 A 
ATOM     12  C   UNL     1       8.304  -0.425  -2.376  1.00  0.00     0.000 A 
ENDBRANCH   6   7
ENDBRANCH   1   6
TORSDOF 4
ENDMDL
MODEL 5
REMARK VINA RESULT:      -6.7      1.939      2.335
REMARK SMILES O=C(O)CCc1ccccc1
REMARK SMILES IDX 4 1 2 2 1 3 3 4 5 6 6 7 7 8 11 9 8 10 10 11 9 12
REMARK H PARENT 3 5
REMARK Flexibility Score: inf
ROOT
ATOM      1  C   UNL     1       8.228   0.235  -2.172  1.00  0.00     0.127 C 
ENDROOT
BRANCH   1   2
ATOM      2  C   UNL     1       9.365   0.382  -1.246  1.00  0.00     0.303 C 
ATOM      3  O   UNL     1       9.456  -0.399  -0.259  1.00  0.00    -0.252 OA
BRANCH   2   4
ATOM      4  O   UNL     1      10.353   1.361  -1.424  1.00  0.00    -0.481 OA
ATOM      5  H   UNL     1      11.269   1.071  -1.740  1.00  0.00     0.296 HD
ENDBRANCH   2   4
ENDBRANCH   1   2
BRANCH   1   6
ATOM      6  C   UNL     1       7.104  -0.592  -1.574  1.00  0.00     0.047 C 
BRANCH   6   7
ATOM      7  C   UNL     1       6.331   0.199  -0.581  1.00  0.00    -0.047 A 
ATOM      8  C   UNL     1       5.796   1.433  -0.921  1.00  0.00     0.004 A 
ATOM      9  C   UNL     1       6.111  -0.234   0.714  1.00  0.00     0.004 A 
ATOM     10  C   UNL     1       5.085   2.194  -0.022  1.00  0.00     0.000 A 
ATOM     11  C   UNL     1       5.398   0.529   1.613  1.00  0.00     0.000 A 
ATOM     12  C   UNL     1       4.872   1.753   1.268  1.00  0.00     0.000 A 
ENDBRANCH   6   7
ENDBRANCH   1   6
TORSDOF 4
ENDMDL
