@<TRIPOS>MOLECULE
/home/cewinharhar/GITHUB/reincatalyze/data/processed/docking_pred/2023-Apr-25-2248_maxeplen10_maxtrainstep1000_exh16_gamma099_lrac3e-4_lrcr1e-3/141a4713aaf07cdd351da17b8461b13d6c9c65f9_ligand_2.pdbqt
 12 12 0 0 0
SMALL
GASTEIGER

@<TRIPOS>ATOM
      1  C          4.9770    1.7800    0.6990 C.3     1  UNL1        0.1270
      2  C          4.4630    1.1220    1.9130 C.2     1  UNL1        0.3030
      3  O          5.1570    0.2250    2.4630 O.2     1  UNL1       -0.2520
      4  O          3.2260    1.4610    2.4810 O.3     1  UNL1       -0.4810
      5  H          2.5800    2.0150    1.9360 H       1  UNL1        0.2960
      6  C          6.4860    1.9430    0.7290 C.3     1  UNL1        0.0470
      7  C          7.1300    1.1400   -0.3430 C.2     1  UNL1       -0.0470
      8  C          6.3860    0.2540   -1.1070 C.2     1  UNL1        0.0040
      9  C          8.4810    1.2210   -0.6290 C.2     1  UNL1        0.0040
     10  C          6.9550   -0.5110   -2.1000 C.2     1  UNL1        0.0000
     11  C          9.0490    0.4540   -1.6230 C.2     1  UNL1        0.0000
     12  C          8.3040   -0.4250   -2.3760 C.2     1  UNL1        0.0000
@<TRIPOS>BOND
     1    12    10    2
     2    12    11    1
     3    10     8    1
     4    11     9    2
     5     8     7    2
     6     9     7    1
     7     7     6    1
     8     1     6    1
     9     1     2    1
    10     2     3    2
    11     2     4    1
    12     5     4    1
