@<TRIPOS>MOLECULE
/home/cewinharhar/GITHUB/reincatalyze/data/processed/docking_pred/2023-Apr-25-2248_maxeplen10_maxtrainstep1000_exh16_gamma099_lrac3e-4_lrcr1e-3/141a4713aaf07cdd351da17b8461b13d6c9c65f9_ligand_2.pdbqt
 12 12 0 0 0
SMALL
GASTEIGER

@<TRIPOS>ATOM
      1  C          8.4050   -0.7120   -2.0490 C.3     1  UNL1        0.1270
      2  C          8.3950   -1.9340   -2.8720 C.2     1  UNL1        0.3030
      3  O          7.2900   -2.4130   -3.2440 O.2     1  UNL1       -0.2520
      4  O          9.5760   -2.5840   -3.2600 O.3     1  UNL1       -0.4810
      5  H          9.5540   -3.1810   -4.0750 H       1  UNL1        0.2960
      6  C          7.0790    0.0250   -2.1010 C.3     1  UNL1        0.0470
      7  C          6.4890    0.1580   -0.7440 C.2     1  UNL1       -0.0470
      8  C          6.6130   -0.8660    0.1850 C.2     1  UNL1        0.0040
      9  C          5.7890    1.2790   -0.3380 C.2     1  UNL1        0.0040
     10  C          6.0690   -0.7780    1.4460 C.2     1  UNL1        0.0000
     11  C          5.2450    1.3660    0.9260 C.2     1  UNL1        0.0000
     12  C          5.3710    0.3450    1.8410 C.2     1  UNL1        0.0000
@<TRIPOS>BOND
     1     5     4    1
     2     4     2    1
     3     3     2    2
     4     2     1    1
     5     6     1    1
     6     6     7    1
     7     7     9    2
     8     7     8    1
     9     9    11    1
    10     8    10    2
    11    11    12    2
    12    10    12    1
