@<TRIPOS>MOLECULE
/home/cewinharhar/GITHUB/reincatalyze/data/processed/docking_pred/2023-Apr-25-2248_maxeplen10_maxtrainstep1000_exh16_gamma099_lrac3e-4_lrcr1e-3/141a4713aaf07cdd351da17b8461b13d6c9c65f9_ligand_2.pdbqt
 12 12 0 0 0
SMALL
GASTEIGER

@<TRIPOS>ATOM
      1  C          8.2280    0.2350   -2.1720 C.3     1  UNL1        0.1270
      2  C          9.3650    0.3820   -1.2460 C.2     1  UNL1        0.3030
      3  O          9.4560   -0.3990   -0.2590 O.2     1  UNL1       -0.2520
      4  O         10.3530    1.3610   -1.4240 O.3     1  UNL1       -0.4810
      5  H         11.2690    1.0710   -1.7400 H       1  UNL1        0.2960
      6  C          7.1040   -0.5920   -1.5740 C.3     1  UNL1        0.0470
      7  C          6.3310    0.1990   -0.5810 C.2     1  UNL1       -0.0470
      8  C          5.7960    1.4330   -0.9210 C.2     1  UNL1        0.0040
      9  C          6.1110   -0.2340    0.7140 C.2     1  UNL1        0.0040
     10  C          5.0850    2.1940   -0.0220 C.2     1  UNL1        0.0000
     11  C          5.3980    0.5290    1.6130 C.2     1  UNL1        0.0000
     12  C          4.8720    1.7530    1.2680 C.2     1  UNL1        0.0000
@<TRIPOS>BOND
     1     1     6    1
     2     1     2    1
     3     5     4    1
     4     6     7    1
     5     4     2    1
     6     2     3    2
     7     8     7    2
     8     8    10    1
     9     7     9    1
    10    10    12    2
    11     9    11    2
    12    12    11    1
