@<TRIPOS>MOLECULE
/home/cewinharhar/GITHUB/reincatalyze/data/processed/docking_pred/2023-Apr-25-2248_maxeplen10_maxtrainstep1000_exh16_gamma099_lrac3e-4_lrcr1e-3/141a4713aaf07cdd351da17b8461b13d6c9c65f9_ligand_2.pdbqt
 12 12 0 0 0
SMALL
GASTEIGER

@<TRIPOS>ATOM
      1  C          8.4260   -0.6210   -2.1900 C.3     1  UNL1        0.1270
      2  C          8.4460   -1.9080   -2.9080 C.2     1  UNL1        0.3030
      3  O          9.5450   -2.5080   -3.0600 O.2     1  UNL1       -0.2520
      4  O          7.2820   -2.4920   -3.4300 O.3     1  UNL1       -0.4810
      5  H          7.3500   -3.0200   -4.2890 H       1  UNL1        0.2960
      6  C          7.0430    0.0050   -2.1730 C.3     1  UNL1        0.0470
      7  C          6.5030    0.0650   -0.7890 C.2     1  UNL1       -0.0470
      8  C          5.8470    1.2000   -0.3340 C.2     1  UNL1        0.0040
      9  C          6.6280   -0.9790    0.1090 C.2     1  UNL1        0.0040
     10  C          5.3450    1.2910    0.9440 C.2     1  UNL1        0.0000
     11  C          6.1250   -0.8860    1.3890 C.2     1  UNL1        0.0000
     12  C          5.4770    0.2440    1.8330 C.2     1  UNL1        0.0000
@<TRIPOS>BOND
     1     5     4    1
     2     4     2    1
     3     3     2    2
     4     2     1    1
     5     1     6    1
     6     6     7    1
     7     7     8    2
     8     7     9    1
     9     8    10    1
    10     9    11    2
    11    10    12    2
    12    11    12    1
