@<TRIPOS>MOLECULE
/home/cewinharhar/GITHUB/reincatalyze/data/processed/docking_pred/2023-Apr-25-2248_maxeplen10_maxtrainstep1000_exh16_gamma099_lrac3e-4_lrcr1e-3/141be626e2cd6ba8f6b8a46d6dbef4dd02701a2b_ligand_2.pdbqt
 12 12 0 0 0
SMALL
GASTEIGER

@<TRIPOS>ATOM
      1  C          4.9960    1.7840    0.7300 C.3     1  UNL1        0.1270
      2  C          4.4670    1.1120    1.9290 C.2     1  UNL1        0.3030
      3  O          5.1510    0.2040    2.4750 O.2     1  UNL1       -0.2520
      4  O          3.2250    1.4490    2.4890 O.3     1  UNL1       -0.4810
      5  H          2.3940    1.3350    1.9240 H       1  UNL1        0.2960
      6  C          6.5100    1.8950    0.7550 C.3     1  UNL1        0.0470
      7  C          7.1220    1.0850   -0.3300 C.2     1  UNL1       -0.0470
      8  C          8.4650    1.2260   -0.6470 C.2     1  UNL1        0.0040
      9  C          6.4030    0.1700   -1.0770 C.2     1  UNL1        0.0040
     10  C          9.0590    0.4980   -1.6530 C.2     1  UNL1        0.0000
     11  C          6.9990   -0.5590   -2.0840 C.2     1  UNL1        0.0000
     12  C          8.3320   -0.4120   -2.3940 C.2     1  UNL1        0.0000
@<TRIPOS>BOND
     1    12    11    2
     2    12    10    1
     3    11     9    1
     4    10     8    2
     5     9     7    2
     6     8     7    1
     7     7     6    1
     8     1     6    1
     9     1     2    1
    10     5     4    1
    11     2     3    2
    12     2     4    1
