@<TRIPOS>MOLECULE
/home/cewinharhar/GITHUB/reincatalyze/data/processed/docking_pred/2023-Apr-25-2248_maxeplen10_maxtrainstep1000_exh16_gamma099_lrac3e-4_lrcr1e-3/141be626e2cd6ba8f6b8a46d6dbef4dd02701a2b_ligand_2.pdbqt
 12 12 0 0 0
SMALL
GASTEIGER

@<TRIPOS>ATOM
      1  C          8.3790   -0.6380   -2.1350 C.3     1  UNL1        0.1270
      2  C          8.3950   -1.9020   -2.8930 C.2     1  UNL1        0.3030
      3  O          7.3000   -2.4220   -3.2390 O.2     1  UNL1       -0.2520
      4  O          9.5890   -2.5470   -3.2460 O.3     1  UNL1       -0.4810
      5  H          9.6020   -3.1180   -4.0800 H       1  UNL1        0.2960
      6  C          7.0090    0.0150   -2.1380 C.3     1  UNL1        0.0470
      7  C          6.4660    0.1220   -0.7580 C.2     1  UNL1       -0.0470
      8  C          6.5990   -0.9300    0.1370 C.2     1  UNL1        0.0040
      9  C          5.8030    1.2450   -0.2990 C.2     1  UNL1        0.0040
     10  C          6.0990   -0.8670    1.4170 C.2     1  UNL1        0.0000
     11  C          5.3030    1.3070    0.9840 C.2     1  UNL1        0.0000
     12  C          5.4370    0.2590    1.8660 C.2     1  UNL1        0.0000
@<TRIPOS>BOND
     1     5     4    1
     2     4     2    1
     3     3     2    2
     4     2     1    1
     5     6     1    1
     6     6     7    1
     7     7     9    2
     8     7     8    1
     9     9    11    1
    10     8    10    2
    11    11    12    2
    12    10    12    1
