@<TRIPOS>MOLECULE
/home/cewinharhar/GITHUB/reincatalyze/data/processed/docking_pred/2023-Apr-25-2248_maxeplen10_maxtrainstep1000_exh16_gamma099_lrac3e-4_lrcr1e-3/141be626e2cd6ba8f6b8a46d6dbef4dd02701a2b_ligand_2.pdbqt
 12 12 0 0 0
SMALL
GASTEIGER

@<TRIPOS>ATOM
      1  C          8.0910   -1.6010    1.1460 C.3     1  UNL1        0.1270
      2  C          8.4380   -2.7770    0.3290 C.2     1  UNL1        0.3030
      3  O          9.1090   -3.7080    0.8510 O.2     1  UNL1       -0.2520
      4  O          8.0450   -2.8990   -1.0110 O.3     1  UNL1       -0.4810
      5  H          8.1980   -3.7810   -1.4820 H       1  UNL1        0.2960
      6  C          6.5920   -1.4560    1.3360 C.3     1  UNL1        0.0470
      7  C          6.1050   -0.1710    0.7690 C.2     1  UNL1       -0.0470
      8  C          5.3490    0.7010    1.5400 C.2     1  UNL1        0.0040
      9  C          6.3610    0.2180   -0.5330 C.2     1  UNL1        0.0040
     10  C          4.8750    1.8930    1.0410 C.2     1  UNL1        0.0000
     11  C          5.8860    1.4120   -1.0310 C.2     1  UNL1        0.0000
     12  C          5.1360    2.2710   -0.2610 C.2     1  UNL1        0.0000
@<TRIPOS>BOND
     1     5     4    1
     2    11     9    1
     3    11    12    2
     4     4     2    1
     5     9     7    2
     6    12    10    1
     7     2     3    2
     8     2     1    1
     9     7     6    1
    10     7     8    1
    11    10     8    2
    12     1     6    1
