@<TRIPOS>MOLECULE
/home/cewinharhar/GITHUB/reincatalyze/data/processed/docking_pred/2023-Apr-25-2248_maxeplen10_maxtrainstep1000_exh16_gamma099_lrac3e-4_lrcr1e-3/141be626e2cd6ba8f6b8a46d6dbef4dd02701a2b_ligand_2.pdbqt
 12 12 0 0 0
SMALL
GASTEIGER

@<TRIPOS>ATOM
      1  C          8.3050    0.1570   -2.1600 C.3     1  UNL1        0.1270
      2  C          9.4230    0.3470   -1.2190 C.2     1  UNL1        0.3030
      3  O          9.4900   -0.3840   -0.1930 O.2     1  UNL1       -0.2520
      4  O         10.4180    1.3130   -1.4240 O.3     1  UNL1       -0.4810
      5  H         10.3980    1.8530   -2.2790 H       1  UNL1        0.2960
      6  C          7.1680   -0.6420   -1.5480 C.3     1  UNL1        0.0470
      7  C          6.3750    0.1940   -0.6090 C.2     1  UNL1       -0.0470
      8  C          5.8580    1.4160   -1.0140 C.2     1  UNL1        0.0040
      9  C          6.1200   -0.1840    0.6970 C.2     1  UNL1        0.0040
     10  C          5.1290    2.2170   -0.1650 C.2     1  UNL1        0.0000
     11  C          5.3890    0.6200    1.5450 C.2     1  UNL1        0.0000
     12  C          4.8810    1.8320    1.1370 C.2     1  UNL1        0.0000
@<TRIPOS>BOND
     1     5     4    1
     2     1     6    1
     3     1     2    1
     4     6     7    1
     5     4     2    1
     6     2     3    2
     7     8     7    2
     8     8    10    1
     9     7     9    1
    10    10    12    2
    11     9    11    2
    12    12    11    1
