@<TRIPOS>MOLECULE
/home/cewinharhar/GITHUB/reincatalyze/data/processed/docking_pred/2023-Apr-25-2248_maxeplen10_maxtrainstep1000_exh16_gamma099_lrac3e-4_lrcr1e-3/141be626e2cd6ba8f6b8a46d6dbef4dd02701a2b_ligand_2.pdbqt
 12 12 0 0 0
SMALL
GASTEIGER

@<TRIPOS>ATOM
      1  C          8.4200   -0.6010   -2.1960 C.3     1  UNL1        0.1270
      2  C          8.4510   -1.8870   -2.9150 C.2     1  UNL1        0.3030
      3  O          9.5580   -2.4620   -3.0940 O.2     1  UNL1       -0.2520
      4  O          7.2880   -2.4960   -3.4080 O.3     1  UNL1       -0.4810
      5  H          6.6400   -2.9050   -2.7480 H       1  UNL1        0.2960
      6  C          7.0300    0.0090   -2.1680 C.3     1  UNL1        0.0470
      7  C          6.5010    0.0650   -0.7810 C.2     1  UNL1       -0.0470
      8  C          5.8740    1.2100   -0.3080 C.2     1  UNL1        0.0040
      9  C          6.6080   -0.9910    0.1050 C.2     1  UNL1        0.0040
     10  C          5.3830    1.2970    0.9740 C.2     1  UNL1        0.0000
     11  C          6.1160   -0.9020    1.3890 C.2     1  UNL1        0.0000
     12  C          5.4960    0.2370    1.8510 C.2     1  UNL1        0.0000
@<TRIPOS>BOND
     1     4     2    1
     2     4     5    1
     3     3     2    2
     4     2     1    1
     5     1     6    1
     6     6     7    1
     7     7     8    2
     8     7     9    1
     9     8    10    1
    10     9    11    2
    11    10    12    2
    12    11    12    1
