MODEL 1
REMARK VINA RESULT:      -7.3      0.000      0.000
REMARK SMILES O=C(O)CCc1ccccc1
REMARK SMILES IDX 4 1 2 2 1 3 3 4 5 6 6 7 7 8 11 9 8 10 10 11 9 12
REMARK H PARENT 3 5
REMARK Flexibility Score: inf
ROOT
ATOM      1  C   UNL     1       8.420  -0.601  -2.196  1.00  0.00     0.127 C 
ENDROOT
BRANCH   1   2
ATOM      2  C   UNL     1       8.451  -1.887  -2.915  1.00  0.00     0.303 C 
ATOM      3  O   UNL     1       9.558  -2.462  -3.094  1.00  0.00    -0.252 OA
BRANCH   2   4
ATOM      4  O   UNL     1       7.288  -2.496  -3.408  1.00  0.00    -0.481 OA
ATOM      5  H   UNL     1       6.640  -2.905  -2.748  1.00  0.00     0.296 HD
ENDBRANCH   2   4
ENDBRANCH   1   2
BRANCH   1   6
ATOM      6  C   UNL     1       7.030   0.009  -2.168  1.00  0.00     0.047 C 
BRANCH   6   7
ATOM      7  C   UNL     1       6.501   0.065  -0.781  1.00  0.00    -0.047 A 
ATOM      8  C   UNL     1       5.874   1.210  -0.308  1.00  0.00     0.004 A 
ATOM      9  C   UNL     1       6.608  -0.991   0.105  1.00  0.00     0.004 A 
ATOM     10  C   UNL     1       5.383   1.297   0.974  1.00  0.00     0.000 A 
ATOM     11  C   UNL     1       6.116  -0.902   1.389  1.00  0.00     0.000 A 
ATOM     12  C   UNL     1       5.496   0.237   1.851  1.00  0.00     0.000 A 
ENDBRANCH   6   7
ENDBRANCH   1   6
TORSDOF 4
ENDMDL
MODEL 2
REMARK VINA RESULT:      -7.2      0.098      1.724
REMARK SMILES O=C(O)CCc1ccccc1
REMARK SMILES IDX 4 1 2 2 1 3 3 4 5 6 6 7 7 8 11 9 8 10 10 11 9 12
REMARK H PARENT 3 5
REMARK Flexibility Score: inf
ROOT
ATOM      1  C   UNL     1       8.379  -0.638  -2.135  1.00  0.00     0.127 C 
ENDROOT
BRANCH   1   2
ATOM      2  C   UNL     1       8.395  -1.902  -2.893  1.00  0.00     0.303 C 
ATOM      3  O   UNL     1       7.300  -2.422  -3.239  1.00  0.00    -0.252 OA
BRANCH   2   4
ATOM      4  O   UNL     1       9.589  -2.547  -3.246  1.00  0.00    -0.481 OA
ATOM      5  H   UNL     1       9.602  -3.118  -4.080  1.00  0.00     0.296 HD
ENDBRANCH   2   4
ENDBRANCH   1   2
BRANCH   1   6
ATOM      6  C   UNL     1       7.009   0.015  -2.138  1.00  0.00     0.047 C 
BRANCH   6   7
ATOM      7  C   UNL     1       6.466   0.122  -0.758  1.00  0.00    -0.047 A 
ATOM      8  C   UNL     1       6.599  -0.930   0.137  1.00  0.00     0.004 A 
ATOM      9  C   UNL     1       5.803   1.245  -0.299  1.00  0.00     0.004 A 
ATOM     10  C   UNL     1       6.099  -0.867   1.417  1.00  0.00     0.000 A 
ATOM     11  C   UNL     1       5.303   1.307   0.984  1.00  0.00     0.000 A 
ATOM     12  C   UNL     1       5.437   0.259   1.866  1.00  0.00     0.000 A 
ENDBRANCH   6   7
ENDBRANCH   1   6
TORSDOF 4
ENDMDL
MODEL 3
REMARK VINA RESULT:      -6.8      3.390      5.070
REMARK SMILES O=C(O)CCc1ccccc1
REMARK SMILES IDX 4 1 2 2 1 3 3 4 5 6 6 7 7 8 11 9 8 10 10 11 9 12
REMARK H PARENT 3 5
REMARK Flexibility Score: inf
ROOT
ATOM      1  C   UNL     1       4.996   1.784   0.730  1.00  0.00     0.127 C 
ENDROOT
BRANCH   1   2
ATOM      2  C   UNL     1       4.467   1.112   1.929  1.00  0.00     0.303 C 
ATOM      3  O   UNL     1       5.151   0.204   2.475  1.00  0.00    -0.252 OA
BRANCH   2   4
ATOM      4  O   UNL     1       3.225   1.449   2.489  1.00  0.00    -0.481 OA
ATOM      5  H   UNL     1       2.394   1.335   1.924  1.00  0.00     0.296 HD
ENDBRANCH   2   4
ENDBRANCH   1   2
BRANCH   1   6
ATOM      6  C   UNL     1       6.510   1.895   0.755  1.00  0.00     0.047 C 
BRANCH   6   7
ATOM      7  C   UNL     1       7.122   1.085  -0.330  1.00  0.00    -0.047 A 
ATOM      8  C   UNL     1       8.465   1.226  -0.647  1.00  0.00     0.004 A 
ATOM      9  C   UNL     1       6.403   0.170  -1.077  1.00  0.00     0.004 A 
ATOM     10  C   UNL     1       9.059   0.498  -1.653  1.00  0.00     0.000 A 
ATOM     11  C   UNL     1       6.999  -0.559  -2.084  1.00  0.00     0.000 A 
ATOM     12  C   UNL     1       8.332  -0.412  -2.394  1.00  0.00     0.000 A 
ENDBRANCH   6   7
ENDBRANCH   1   6
TORSDOF 4
ENDMDL
MODEL 4
REMARK VINA RESULT:      -6.7      1.959      2.366
REMARK SMILES O=C(O)CCc1ccccc1
REMARK SMILES IDX 4 1 2 2 1 3 3 4 5 6 6 7 7 8 11 9 8 10 10 11 9 12
REMARK H PARENT 3 5
REMARK Flexibility Score: inf
ROOT
ATOM      1  C   UNL     1       8.305   0.157  -2.160  1.00  0.00     0.127 C 
ENDROOT
BRANCH   1   2
ATOM      2  C   UNL     1       9.423   0.347  -1.219  1.00  0.00     0.303 C 
ATOM      3  O   UNL     1       9.490  -0.384  -0.193  1.00  0.00    -0.252 OA
BRANCH   2   4
ATOM      4  O   UNL     1      10.418   1.313  -1.424  1.00  0.00    -0.481 OA
ATOM      5  H   UNL     1      10.398   1.853  -2.279  1.00  0.00     0.296 HD
ENDBRANCH   2   4
ENDBRANCH   1   2
BRANCH   1   6
ATOM      6  C   UNL     1       7.168  -0.642  -1.548  1.00  0.00     0.047 C 
BRANCH   6   7
ATOM      7  C   UNL     1       6.375   0.194  -0.609  1.00  0.00    -0.047 A 
ATOM      8  C   UNL     1       5.858   1.416  -1.014  1.00  0.00     0.004 A 
ATOM      9  C   UNL     1       6.120  -0.184   0.697  1.00  0.00     0.004 A 
ATOM     10  C   UNL     1       5.129   2.217  -0.165  1.00  0.00     0.000 A 
ATOM     11  C   UNL     1       5.389   0.620   1.545  1.00  0.00     0.000 A 
ATOM     12  C   UNL     1       4.881   1.832   1.137  1.00  0.00     0.000 A 
ENDBRANCH   6   7
ENDBRANCH   1   6
TORSDOF 4
ENDMDL
MODEL 5
REMARK VINA RESULT:      -6.6      1.882      2.878
REMARK SMILES O=C(O)CCc1ccccc1
REMARK SMILES IDX 4 1 2 2 1 3 3 4 5 6 6 7 7 8 11 9 8 10 10 11 9 12
REMARK H PARENT 3 5
REMARK Flexibility Score: inf
ROOT
ATOM      1  C   UNL     1       8.091  -1.601   1.146  1.00  0.00     0.127 C 
ENDROOT
BRANCH   1   2
ATOM      2  C   UNL     1       8.438  -2.777   0.329  1.00  0.00     0.303 C 
ATOM      3  O   UNL     1       9.109  -3.708   0.851  1.00  0.00    -0.252 OA
BRANCH   2   4
ATOM      4  O   UNL     1       8.045  -2.899  -1.011  1.00  0.00    -0.481 OA
ATOM      5  H   UNL     1       8.198  -3.781  -1.482  1.00  0.00     0.296 HD
ENDBRANCH   2   4
ENDBRANCH   1   2
BRANCH   1   6
ATOM      6  C   UNL     1       6.592  -1.456   1.336  1.00  0.00     0.047 C 
BRANCH   6   7
ATOM      7  C   UNL     1       6.105  -0.171   0.769  1.00  0.00    -0.047 A 
ATOM      8  C   UNL     1       5.349   0.701   1.540  1.00  0.00     0.004 A 
ATOM      9  C   UNL     1       6.361   0.218  -0.533  1.00  0.00     0.004 A 
ATOM     10  C   UNL     1       4.875   1.893   1.041  1.00  0.00     0.000 A 
ATOM     11  C   UNL     1       5.886   1.412  -1.031  1.00  0.00     0.000 A 
ATOM     12  C   UNL     1       5.136   2.271  -0.261  1.00  0.00     0.000 A 
ENDBRANCH   6   7
ENDBRANCH   1   6
TORSDOF 4
ENDMDL
