@<TRIPOS>MOLECULE
/home/cewinharhar/GITHUB/reincatalyze/data/processed/docking_pred/2023-Apr-25-2248_maxeplen10_maxtrainstep1000_exh16_gamma099_lrac3e-4_lrcr1e-3/1444e75be78da7e2931ed2b5f85ad252461f0798_ligand_2.pdbqt
 12 12 0 0 0
SMALL
GASTEIGER

@<TRIPOS>ATOM
      1  C          6.2140    1.3460    1.4080 C.3     1  UNL1        0.1270
      2  C          5.1940    0.4200    1.9300 C.2     1  UNL1        0.3030
      3  O          5.4150   -0.8210    1.8890 O.2     1  UNL1       -0.2520
      4  O          3.9820    0.8710    2.4720 O.3     1  UNL1       -0.4810
      5  H          3.1270    0.4070    2.1960 H       1  UNL1        0.2960
      6  C          6.0470    1.6070   -0.0780 C.3     1  UNL1        0.0470
      7  C          6.9880    0.7770   -0.8740 C.2     1  UNL1       -0.0470
      8  C          6.5300   -0.3150   -1.5970 C.2     1  UNL1        0.0040
      9  C          8.3460    1.0310   -0.9310 C.2     1  UNL1        0.0040
     10  C          7.3770   -1.1100   -2.3350 C.2     1  UNL1        0.0000
     11  C          9.1930    0.2340   -1.6710 C.2     1  UNL1        0.0000
     12  C          8.7320   -0.8480   -2.3850 C.2     1  UNL1        0.0000
@<TRIPOS>BOND
     1    12    10    2
     2    12    11    1
     3    10     8    1
     4    11     9    2
     5     8     7    2
     6     9     7    1
     7     7     6    1
     8     6     1    1
     9     1     2    1
    10     3     2    2
    11     2     4    1
    12     5     4    1
