@<TRIPOS>MOLECULE
/home/cewinharhar/GITHUB/reincatalyze/data/processed/docking_pred/2023-Apr-25-2248_maxeplen10_maxtrainstep1000_exh16_gamma099_lrac3e-4_lrcr1e-3/1444e75be78da7e2931ed2b5f85ad252461f0798_ligand_2.pdbqt
 12 12 0 0 0
SMALL
GASTEIGER

@<TRIPOS>ATOM
      1  C          5.9430   -0.7180    1.7820 C.3     1  UNL1        0.1270
      2  C          5.2800    0.5830    1.9830 C.2     1  UNL1        0.3030
      3  O          4.1120    0.6080    2.4570 O.2     1  UNL1       -0.2520
      4  O          5.9050    1.7970    1.6640 O.3     1  UNL1       -0.4810
      5  H          6.5640    1.8150    0.8980 H       1  UNL1        0.2960
      6  C          7.4250   -0.5680    1.4900 C.3     1  UNL1        0.0470
      7  C          7.6720   -0.4680    0.0280 C.2     1  UNL1       -0.0470
      8  C          8.6280    0.4050   -0.4700 C.2     1  UNL1        0.0040
      9  C          6.9720   -1.2150   -0.9020 C.2     1  UNL1        0.0040
     10  C          8.8730    0.5290   -1.8190 C.2     1  UNL1        0.0000
     11  C          7.2190   -1.0900   -2.2530 C.2     1  UNL1        0.0000
     12  C          8.1680   -0.2200   -2.7390 C.2     1  UNL1        0.0000
@<TRIPOS>BOND
     1    12    11    2
     2    12    10    1
     3    11     9    1
     4    10     8    2
     5     9     7    2
     6     8     7    1
     7     7     6    1
     8     5     4    1
     9     6     1    1
    10     4     2    1
    11     1     2    1
    12     2     3    2
