@<TRIPOS>MOLECULE
/home/cewinharhar/GITHUB/reincatalyze/data/processed/docking_pred/2023-Apr-25-2248_maxeplen10_maxtrainstep1000_exh16_gamma099_lrac3e-4_lrcr1e-3/1444e75be78da7e2931ed2b5f85ad252461f0798_ligand_2.pdbqt
 12 12 0 0 0
SMALL
GASTEIGER

@<TRIPOS>ATOM
      1  C          8.3770   -0.5970   -2.1860 C.3     1  UNL1        0.1270
      2  C          8.3930   -1.8790   -2.9120 C.2     1  UNL1        0.3030
      3  O          7.2980   -2.4030   -3.2540 O.2     1  UNL1       -0.2520
      4  O          9.5870   -2.5380   -3.2400 O.3     1  UNL1       -0.4810
      5  H         10.4580   -2.0300   -3.1570 H       1  UNL1        0.2960
      6  C          6.9750   -0.0260   -2.0600 C.3     1  UNL1        0.0470
      7  C          6.4940   -0.0990   -0.6560 C.2     1  UNL1       -0.0470
      8  C          6.7470   -1.2200    0.1220 C.2     1  UNL1        0.0040
      9  C          5.7730    0.9180   -0.0580 C.2     1  UNL1        0.0040
     10  C          6.3060   -1.3230    1.4210 C.2     1  UNL1        0.0000
     11  C          5.3320    0.8140    1.2440 C.2     1  UNL1        0.0000
     12  C          5.5870   -0.3020    2.0080 C.2     1  UNL1        0.0000
@<TRIPOS>BOND
     1     3     2    2
     2     4     5    1
     3     4     2    1
     4     2     1    1
     5     1     6    1
     6     6     7    1
     7     7     9    2
     8     7     8    1
     9     9    11    1
    10     8    10    2
    11    11    12    2
    12    10    12    1
