MODEL 1
REMARK VINA RESULT:      -7.2      0.000      0.000
REMARK SMILES O=C(O)CCc1ccccc1
REMARK SMILES IDX 4 1 2 2 1 3 3 4 5 6 6 7 7 8 11 9 8 10 10 11 9 12
REMARK H PARENT 3 5
REMARK Flexibility Score: inf
ROOT
ATOM      1  C   UNL     1       8.436  -0.683  -2.105  1.00  0.00     0.127 C 
ENDROOT
BRANCH   1   2
ATOM      2  C   UNL     1       8.448  -1.916  -2.912  1.00  0.00     0.303 C 
ATOM      3  O   UNL     1       9.546  -2.497  -3.125  1.00  0.00    -0.252 OA
BRANCH   2   4
ATOM      4  O   UNL     1       7.277  -2.468  -3.452  1.00  0.00    -0.481 OA
ATOM      5  H   UNL     1       7.067  -3.438  -3.260  1.00  0.00     0.296 HD
ENDBRANCH   2   4
ENDBRANCH   1   2
BRANCH   1   6
ATOM      6  C   UNL     1       7.051  -0.064  -2.023  1.00  0.00     0.047 C 
BRANCH   6   7
ATOM      7  C   UNL     1       6.517  -0.137  -0.638  1.00  0.00    -0.047 A 
ATOM      8  C   UNL     1       5.767   0.906  -0.113  1.00  0.00     0.004 A 
ATOM      9  C   UNL     1       6.739  -1.219   0.194  1.00  0.00     0.004 A 
ATOM     10  C   UNL     1       5.267   0.873   1.168  1.00  0.00     0.000 A 
ATOM     11  C   UNL     1       6.238  -1.250   1.477  1.00  0.00     0.000 A 
ATOM     12  C   UNL     1       5.496  -0.211   1.991  1.00  0.00     0.000 A 
ENDBRANCH   6   7
ENDBRANCH   1   6
TORSDOF 4
ENDMDL
MODEL 2
REMARK VINA RESULT:      -7.1      0.115      1.725
REMARK SMILES O=C(O)CCc1ccccc1
REMARK SMILES IDX 4 1 2 2 1 3 3 4 5 6 6 7 7 8 11 9 8 10 10 11 9 12
REMARK H PARENT 3 5
REMARK Flexibility Score: inf
ROOT
ATOM      1  C   UNL     1       8.377  -0.597  -2.186  1.00  0.00     0.127 C 
ENDROOT
BRANCH   1   2
ATOM      2  C   UNL     1       8.393  -1.879  -2.912  1.00  0.00     0.303 C 
ATOM      3  O   UNL     1       7.298  -2.403  -3.254  1.00  0.00    -0.252 OA
BRANCH   2   4
ATOM      4  O   UNL     1       9.587  -2.538  -3.240  1.00  0.00    -0.481 OA
ATOM      5  H   UNL     1      10.458  -2.030  -3.157  1.00  0.00     0.296 HD
ENDBRANCH   2   4
ENDBRANCH   1   2
BRANCH   1   6
ATOM      6  C   UNL     1       6.975  -0.026  -2.060  1.00  0.00     0.047 C 
BRANCH   6   7
ATOM      7  C   UNL     1       6.494  -0.099  -0.656  1.00  0.00    -0.047 A 
ATOM      8  C   UNL     1       6.747  -1.220   0.122  1.00  0.00     0.004 A 
ATOM      9  C   UNL     1       5.773   0.918  -0.058  1.00  0.00     0.004 A 
ATOM     10  C   UNL     1       6.306  -1.323   1.421  1.00  0.00     0.000 A 
ATOM     11  C   UNL     1       5.332   0.814   1.244  1.00  0.00     0.000 A 
ATOM     12  C   UNL     1       5.587  -0.302   2.008  1.00  0.00     0.000 A 
ENDBRANCH   6   7
ENDBRANCH   1   6
TORSDOF 4
ENDMDL
MODEL 3
REMARK VINA RESULT:      -6.9      0.814      1.026
REMARK SMILES O=C(O)CCc1ccccc1
REMARK SMILES IDX 4 1 2 2 1 3 3 4 5 6 6 7 7 8 11 9 8 10 10 11 9 12
REMARK H PARENT 3 5
REMARK Flexibility Score: inf
ROOT
ATOM      1  C   UNL     1       7.306  -1.308  -2.457  1.00  0.00     0.127 C 
ENDROOT
BRANCH   1   2
ATOM      2  C   UNL     1       8.765  -1.435  -2.618  1.00  0.00     0.303 C 
ATOM      3  O   UNL     1       9.514  -0.541  -2.138  1.00  0.00    -0.252 OA
BRANCH   2   4
ATOM      4  O   UNL     1       9.353  -2.519  -3.286  1.00  0.00    -0.481 OA
ATOM      5  H   UNL     1       8.757  -3.272  -3.602  1.00  0.00     0.296 HD
ENDBRANCH   2   4
ENDBRANCH   1   2
BRANCH   1   6
ATOM      6  C   UNL     1       6.904   0.057  -1.927  1.00  0.00     0.047 C 
BRANCH   6   7
ATOM      7  C   UNL     1       6.390  -0.042  -0.536  1.00  0.00    -0.047 A 
ATOM      8  C   UNL     1       5.652   0.992   0.021  1.00  0.00     0.004 A 
ATOM      9  C   UNL     1       6.622  -1.141   0.271  1.00  0.00     0.004 A 
ATOM     10  C   UNL     1       5.172   0.936   1.309  1.00  0.00     0.000 A 
ATOM     11  C   UNL     1       6.140  -1.196   1.561  1.00  0.00     0.000 A 
ATOM     12  C   UNL     1       5.409  -0.165   2.107  1.00  0.00     0.000 A 
ENDBRANCH   6   7
ENDBRANCH   1   6
TORSDOF 4
ENDMDL
MODEL 4
REMARK VINA RESULT:      -6.6      3.226      4.946
REMARK SMILES O=C(O)CCc1ccccc1
REMARK SMILES IDX 4 1 2 2 1 3 3 4 5 6 6 7 7 8 11 9 8 10 10 11 9 12
REMARK H PARENT 3 5
REMARK Flexibility Score: inf
ROOT
ATOM      1  C   UNL     1       5.943  -0.718   1.782  1.00  0.00     0.127 C 
ENDROOT
BRANCH   1   2
ATOM      2  C   UNL     1       5.280   0.583   1.983  1.00  0.00     0.303 C 
ATOM      3  O   UNL     1       4.112   0.608   2.457  1.00  0.00    -0.252 OA
BRANCH   2   4
ATOM      4  O   UNL     1       5.905   1.797   1.664  1.00  0.00    -0.481 OA
ATOM      5  H   UNL     1       6.564   1.815   0.898  1.00  0.00     0.296 HD
ENDBRANCH   2   4
ENDBRANCH   1   2
BRANCH   1   6
ATOM      6  C   UNL     1       7.425  -0.568   1.490  1.00  0.00     0.047 C 
BRANCH   6   7
ATOM      7  C   UNL     1       7.672  -0.468   0.028  1.00  0.00    -0.047 A 
ATOM      8  C   UNL     1       8.628   0.405  -0.470  1.00  0.00     0.004 A 
ATOM      9  C   UNL     1       6.972  -1.215  -0.902  1.00  0.00     0.004 A 
ATOM     10  C   UNL     1       8.873   0.529  -1.819  1.00  0.00     0.000 A 
ATOM     11  C   UNL     1       7.219  -1.090  -2.253  1.00  0.00     0.000 A 
ATOM     12  C   UNL     1       8.168  -0.220  -2.739  1.00  0.00     0.000 A 
ENDBRANCH   6   7
ENDBRANCH   1   6
TORSDOF 4
ENDMDL
MODEL 5
REMARK VINA RESULT:      -6.5      3.058      4.828
REMARK SMILES O=C(O)CCc1ccccc1
REMARK SMILES IDX 4 1 2 2 1 3 3 4 5 6 6 7 7 8 11 9 8 10 10 11 9 12
REMARK H PARENT 3 5
REMARK Flexibility Score: inf
ROOT
ATOM      1  C   UNL     1       6.214   1.346   1.408  1.00  0.00     0.127 C 
ENDROOT
BRANCH   1   2
ATOM      2  C   UNL     1       5.194   0.420   1.930  1.00  0.00     0.303 C 
ATOM      3  O   UNL     1       5.415  -0.821   1.889  1.00  0.00    -0.252 OA
BRANCH   2   4
ATOM      4  O   UNL     1       3.982   0.871   2.472  1.00  0.00    -0.481 OA
ATOM      5  H   UNL     1       3.127   0.407   2.196  1.00  0.00     0.296 HD
ENDBRANCH   2   4
ENDBRANCH   1   2
BRANCH   1   6
ATOM      6  C   UNL     1       6.047   1.607  -0.078  1.00  0.00     0.047 C 
BRANCH   6   7
ATOM      7  C   UNL     1       6.988   0.777  -0.874  1.00  0.00    -0.047 A 
ATOM      8  C   UNL     1       6.530  -0.315  -1.597  1.00  0.00     0.004 A 
ATOM      9  C   UNL     1       8.346   1.031  -0.931  1.00  0.00     0.004 A 
ATOM     10  C   UNL     1       7.377  -1.110  -2.335  1.00  0.00     0.000 A 
ATOM     11  C   UNL     1       9.193   0.234  -1.671  1.00  0.00     0.000 A 
ATOM     12  C   UNL     1       8.732  -0.848  -2.385  1.00  0.00     0.000 A 
ENDBRANCH   6   7
ENDBRANCH   1   6
TORSDOF 4
ENDMDL
