@<TRIPOS>MOLECULE
/home/cewinharhar/GITHUB/reincatalyze/data/processed/docking_pred/2023-Apr-25-2248_maxeplen10_maxtrainstep1000_exh16_gamma099_lrac3e-4_lrcr1e-3/1444e75be78da7e2931ed2b5f85ad252461f0798_ligand_2.pdbqt
 12 12 0 0 0
SMALL
GASTEIGER

@<TRIPOS>ATOM
      1  C          8.4360   -0.6830   -2.1050 C.3     1  UNL1        0.1270
      2  C          8.4480   -1.9160   -2.9120 C.2     1  UNL1        0.3030
      3  O          9.5460   -2.4970   -3.1250 O.2     1  UNL1       -0.2520
      4  O          7.2770   -2.4680   -3.4520 O.3     1  UNL1       -0.4810
      5  H          7.0670   -3.4380   -3.2600 H       1  UNL1        0.2960
      6  C          7.0510   -0.0640   -2.0230 C.3     1  UNL1        0.0470
      7  C          6.5170   -0.1370   -0.6380 C.2     1  UNL1       -0.0470
      8  C          5.7670    0.9060   -0.1130 C.2     1  UNL1        0.0040
      9  C          6.7390   -1.2190    0.1940 C.2     1  UNL1        0.0040
     10  C          5.2670    0.8730    1.1680 C.2     1  UNL1        0.0000
     11  C          6.2380   -1.2500    1.4770 C.2     1  UNL1        0.0000
     12  C          5.4960   -0.2110    1.9910 C.2     1  UNL1        0.0000
@<TRIPOS>BOND
     1     4     5    1
     2     4     2    1
     3     3     2    2
     4     2     1    1
     5     1     6    1
     6     6     7    1
     7     7     8    2
     8     7     9    1
     9     8    10    1
    10     9    11    2
    11    10    12    2
    12    11    12    1
