@<TRIPOS>MOLECULE
/home/cewinharhar/GITHUB/reincatalyze/data/processed/docking_pred/2023-Apr-25-2248_maxeplen10_maxtrainstep1000_exh16_gamma099_lrac3e-4_lrcr1e-3/1444e75be78da7e2931ed2b5f85ad252461f0798_ligand_2.pdbqt
 12 12 0 0 0
SMALL
GASTEIGER

@<TRIPOS>ATOM
      1  C          7.3060   -1.3080   -2.4570 C.3     1  UNL1        0.1270
      2  C          8.7650   -1.4350   -2.6180 C.2     1  UNL1        0.3030
      3  O          9.5140   -0.5410   -2.1380 O.2     1  UNL1       -0.2520
      4  O          9.3530   -2.5190   -3.2860 O.3     1  UNL1       -0.4810
      5  H          8.7570   -3.2720   -3.6020 H       1  UNL1        0.2960
      6  C          6.9040    0.0570   -1.9270 C.3     1  UNL1        0.0470
      7  C          6.3900   -0.0420   -0.5360 C.2     1  UNL1       -0.0470
      8  C          5.6520    0.9920    0.0210 C.2     1  UNL1        0.0040
      9  C          6.6220   -1.1410    0.2710 C.2     1  UNL1        0.0040
     10  C          5.1720    0.9360    1.3090 C.2     1  UNL1        0.0000
     11  C          6.1400   -1.1960    1.5610 C.2     1  UNL1        0.0000
     12  C          5.4090   -0.1650    2.1070 C.2     1  UNL1        0.0000
@<TRIPOS>BOND
     1     5     4    1
     2     4     2    1
     3     2     1    1
     4     2     3    2
     5     1     6    1
     6     6     7    1
     7     7     8    2
     8     7     9    1
     9     8    10    1
    10     9    11    2
    11    10    12    2
    12    11    12    1
