@<TRIPOS>MOLECULE
/home/cewinharhar/GITHUB/reincatalyze/data/processed/docking_pred/2023-Apr-25-2248_maxeplen10_maxtrainstep1000_exh16_gamma099_lrac3e-4_lrcr1e-3/16519f8051380dc2329c6f51dcb24a8f5dfeda31_ligand_2.pdbqt
 12 12 0 0 0
SMALL
GASTEIGER

@<TRIPOS>ATOM
      1  C          8.4030   -0.6890   -2.0850 C.3     1  UNL1        0.1270
      2  C          8.4230   -1.9250   -2.8880 C.2     1  UNL1        0.3030
      3  O          9.5240   -2.5090   -3.0860 O.2     1  UNL1       -0.2520
      4  O          7.2580   -2.4780   -3.4390 O.3     1  UNL1       -0.4810
      5  H          7.2220   -3.4770   -3.5910 H       1  UNL1        0.2960
      6  C          7.0400   -0.0200   -2.0960 C.3     1  UNL1        0.0470
      7  C          6.4760    0.0620   -0.7240 C.2     1  UNL1       -0.0470
      8  C          5.8120    1.2040   -0.2990 C.2     1  UNL1        0.0040
      9  C          6.5860   -0.9670    0.1940 C.2     1  UNL1        0.0040
     10  C          5.2880    1.3150    0.9690 C.2     1  UNL1        0.0000
     11  C          6.0610   -0.8540    1.4630 C.2     1  UNL1        0.0000
     12  C          5.4050    0.2830    1.8770 C.2     1  UNL1        0.0000
@<TRIPOS>BOND
     1     5     4    1
     2     4     2    1
     3     3     2    2
     4     2     1    1
     5     6     1    1
     6     6     7    1
     7     7     8    2
     8     7     9    1
     9     8    10    1
    10     9    11    2
    11    10    12    2
    12    11    12    1
