@<TRIPOS>MOLECULE
/home/cewinharhar/GITHUB/reincatalyze/data/processed/docking_pred/2023-Apr-25-2248_maxeplen10_maxtrainstep1000_exh16_gamma099_lrac3e-4_lrcr1e-3/16519f8051380dc2329c6f51dcb24a8f5dfeda31_ligand_2.pdbqt
 12 12 0 0 0
SMALL
GASTEIGER

@<TRIPOS>ATOM
      1  C          4.9960    1.7140    0.6870 C.3     1  UNL1        0.1270
      2  C          4.4870    1.0890    1.9200 C.2     1  UNL1        0.3030
      3  O          5.1860    0.2120    2.4960 O.2     1  UNL1       -0.2520
      4  O          3.2490    1.4380    2.4800 O.3     1  UNL1       -0.4810
      5  H          2.9510    2.4030    2.4310 H       1  UNL1        0.2960
      6  C          6.5070    1.8630    0.7000 C.3     1  UNL1        0.0470
      7  C          7.1320    1.0440   -0.3710 C.2     1  UNL1       -0.0470
      8  C          8.4830    1.1710   -0.6620 C.2     1  UNL1        0.0040
      9  C          6.4190    0.1350   -1.1310 C.2     1  UNL1        0.0040
     10  C          9.0890    0.4350   -1.6540 C.2     1  UNL1        0.0000
     11  C          7.0270   -0.6010   -2.1240 C.2     1  UNL1        0.0000
     12  C          8.3680   -0.4690   -2.4080 C.2     1  UNL1        0.0000
@<TRIPOS>BOND
     1    12    11    2
     2    12    10    1
     3    11     9    1
     4    10     8    2
     5     9     7    2
     6     8     7    1
     7     7     6    1
     8     1     6    1
     9     1     2    1
    10     2     4    1
    11     2     3    2
    12     5     4    1
