@<TRIPOS>MOLECULE
/home/cewinharhar/GITHUB/reincatalyze/data/processed/docking_pred/2023-Apr-25-2248_maxeplen10_maxtrainstep1000_exh16_gamma099_lrac3e-4_lrcr1e-3/16519f8051380dc2329c6f51dcb24a8f5dfeda31_ligand_2.pdbqt
 12 12 0 0 0
SMALL
GASTEIGER

@<TRIPOS>ATOM
      1  C          8.2730    0.1860   -2.1780 C.3     1  UNL1        0.1270
      2  C          9.4030    0.3690   -1.2500 C.2     1  UNL1        0.3030
      3  O          9.4770   -0.3600   -0.2240 O.2     1  UNL1       -0.2520
      4  O         10.4040    1.3270   -1.4700 O.3     1  UNL1       -0.4810
      5  H         10.2770    1.9940   -2.2190 H       1  UNL1        0.2960
      6  C          7.1610   -0.6500   -1.5700 C.3     1  UNL1        0.0470
      7  C          6.3780    0.1410   -0.5850 C.2     1  UNL1       -0.0470
      8  C          5.8430    1.3730   -0.9320 C.2     1  UNL1        0.0040
      9  C          6.1510   -0.2890    0.7090 C.2     1  UNL1        0.0040
     10  C          5.1220    2.1340   -0.0410 C.2     1  UNL1        0.0000
     11  C          5.4290    0.4740    1.6020 C.2     1  UNL1        0.0000
     12  C          4.9020    1.6960    1.2500 C.2     1  UNL1        0.0000
@<TRIPOS>BOND
     1     5     4    1
     2     1     6    1
     3     1     2    1
     4     6     7    1
     5     4     2    1
     6     2     3    2
     7     8     7    2
     8     8    10    1
     9     7     9    1
    10    10    12    2
    11     9    11    2
    12    12    11    1
