@<TRIPOS>MOLECULE
/home/cewinharhar/GITHUB/reincatalyze/data/processed/docking_pred/2023-Apr-25-2248_maxeplen10_maxtrainstep1000_exh16_gamma099_lrac3e-4_lrcr1e-3/16519f8051380dc2329c6f51dcb24a8f5dfeda31_ligand_2.pdbqt
 12 12 0 0 0
SMALL
GASTEIGER

@<TRIPOS>ATOM
      1  C          8.4070   -0.6580   -2.1270 C.3     1  UNL1        0.1270
      2  C          8.4420   -1.9120   -2.9000 C.2     1  UNL1        0.3030
      3  O          9.5490   -2.4850   -3.0880 O.2     1  UNL1       -0.2520
      4  O          7.2830   -2.4930   -3.4350 O.3     1  UNL1       -0.4810
      5  H          6.6440   -2.9620   -2.8070 H       1  UNL1        0.2960
      6  C          7.0340   -0.0110   -2.1430 C.3     1  UNL1        0.0470
      7  C          6.4820    0.1020   -0.7680 C.2     1  UNL1       -0.0470
      8  C          6.6090   -0.9450    0.1340 C.2     1  UNL1        0.0040
      9  C          5.8160    1.2280   -0.3190 C.2     1  UNL1        0.0040
     10  C          6.1010   -0.8740    1.4110 C.2     1  UNL1        0.0000
     11  C          5.3080    1.2970    0.9600 C.2     1  UNL1        0.0000
     12  C          5.4370    0.2540    1.8490 C.2     1  UNL1        0.0000
@<TRIPOS>BOND
     1     4     2    1
     2     4     5    1
     3     3     2    2
     4     2     1    1
     5     6     1    1
     6     6     7    1
     7     7     9    2
     8     7     8    1
     9     9    11    1
    10     8    10    2
    11    11    12    2
    12    10    12    1
