MODEL 1
REMARK VINA RESULT:      -7.3      0.000      0.000
REMARK SMILES O=C(O)CCc1ccccc1
REMARK SMILES IDX 4 1 2 2 1 3 3 4 5 6 6 7 7 8 11 9 8 10 10 11 9 12
REMARK H PARENT 3 5
REMARK Flexibility Score: inf
ROOT
ATOM      1  C   UNL     1       8.407  -0.658  -2.127  1.00  0.00     0.127 C 
ENDROOT
BRANCH   1   2
ATOM      2  C   UNL     1       8.442  -1.912  -2.900  1.00  0.00     0.303 C 
ATOM      3  O   UNL     1       9.549  -2.485  -3.088  1.00  0.00    -0.252 OA
BRANCH   2   4
ATOM      4  O   UNL     1       7.283  -2.493  -3.435  1.00  0.00    -0.481 OA
ATOM      5  H   UNL     1       6.644  -2.962  -2.807  1.00  0.00     0.296 HD
ENDBRANCH   2   4
ENDBRANCH   1   2
BRANCH   1   6
ATOM      6  C   UNL     1       7.034  -0.011  -2.143  1.00  0.00     0.047 C 
BRANCH   6   7
ATOM      7  C   UNL     1       6.482   0.102  -0.768  1.00  0.00    -0.047 A 
ATOM      8  C   UNL     1       6.609  -0.945   0.134  1.00  0.00     0.004 A 
ATOM      9  C   UNL     1       5.816   1.228  -0.319  1.00  0.00     0.004 A 
ATOM     10  C   UNL     1       6.101  -0.874   1.411  1.00  0.00     0.000 A 
ATOM     11  C   UNL     1       5.308   1.297   0.960  1.00  0.00     0.000 A 
ATOM     12  C   UNL     1       5.437   0.254   1.849  1.00  0.00     0.000 A 
ENDBRANCH   6   7
ENDBRANCH   1   6
TORSDOF 4
ENDMDL
MODEL 2
REMARK VINA RESULT:      -7.3      0.048      1.421
REMARK SMILES O=C(O)CCc1ccccc1
REMARK SMILES IDX 4 1 2 2 1 3 3 4 5 6 6 7 7 8 11 9 8 10 10 11 9 12
REMARK H PARENT 3 5
REMARK Flexibility Score: inf
ROOT
ATOM      1  C   UNL     1       8.403  -0.689  -2.085  1.00  0.00     0.127 C 
ENDROOT
BRANCH   1   2
ATOM      2  C   UNL     1       8.423  -1.925  -2.888  1.00  0.00     0.303 C 
ATOM      3  O   UNL     1       9.524  -2.509  -3.086  1.00  0.00    -0.252 OA
BRANCH   2   4
ATOM      4  O   UNL     1       7.258  -2.478  -3.439  1.00  0.00    -0.481 OA
ATOM      5  H   UNL     1       7.222  -3.477  -3.591  1.00  0.00     0.296 HD
ENDBRANCH   2   4
ENDBRANCH   1   2
BRANCH   1   6
ATOM      6  C   UNL     1       7.040  -0.020  -2.096  1.00  0.00     0.047 C 
BRANCH   6   7
ATOM      7  C   UNL     1       6.476   0.062  -0.724  1.00  0.00    -0.047 A 
ATOM      8  C   UNL     1       5.812   1.204  -0.299  1.00  0.00     0.004 A 
ATOM      9  C   UNL     1       6.586  -0.967   0.194  1.00  0.00     0.004 A 
ATOM     10  C   UNL     1       5.288   1.315   0.969  1.00  0.00     0.000 A 
ATOM     11  C   UNL     1       6.061  -0.854   1.463  1.00  0.00     0.000 A 
ATOM     12  C   UNL     1       5.405   0.283   1.877  1.00  0.00     0.000 A 
ENDBRANCH   6   7
ENDBRANCH   1   6
TORSDOF 4
ENDMDL
MODEL 3
REMARK VINA RESULT:      -7.1      0.727      1.267
REMARK SMILES O=C(O)CCc1ccccc1
REMARK SMILES IDX 4 1 2 2 1 3 3 4 5 6 6 7 7 8 11 9 8 10 10 11 9 12
REMARK H PARENT 3 5
REMARK Flexibility Score: inf
ROOT
ATOM      1  C   UNL     1       8.260  -1.100  -1.735  1.00  0.00     0.127 C 
ENDROOT
BRANCH   1   2
ATOM      2  C   UNL     1       8.372  -2.111  -2.801  1.00  0.00     0.303 C 
ATOM      3  O   UNL     1       9.501  -2.611  -3.056  1.00  0.00    -0.252 OA
BRANCH   2   4
ATOM      4  O   UNL     1       7.262  -2.539  -3.545  1.00  0.00    -0.481 OA
ATOM      5  H   UNL     1       6.357  -2.555  -3.096  1.00  0.00     0.296 HD
ENDBRANCH   2   4
ENDBRANCH   1   2
BRANCH   1   6
ATOM      6  C   UNL     1       7.270  -1.508  -0.659  1.00  0.00     0.047 C 
BRANCH   6   7
ATOM      7  C   UNL     1       6.506  -0.332  -0.165  1.00  0.00    -0.047 A 
ATOM      8  C   UNL     1       6.051  -0.284   1.145  1.00  0.00     0.004 A 
ATOM      9  C   UNL     1       6.202   0.753  -0.966  1.00  0.00     0.004 A 
ATOM     10  C   UNL     1       5.333   0.785   1.629  1.00  0.00     0.000 A 
ATOM     11  C   UNL     1       5.482   1.823  -0.480  1.00  0.00     0.000 A 
ATOM     12  C   UNL     1       5.033   1.863   0.821  1.00  0.00     0.000 A 
ENDBRANCH   6   7
ENDBRANCH   1   6
TORSDOF 4
ENDMDL
MODEL 4
REMARK VINA RESULT:      -6.8      3.391      5.088
REMARK SMILES O=C(O)CCc1ccccc1
REMARK SMILES IDX 4 1 2 2 1 3 3 4 5 6 6 7 7 8 11 9 8 10 10 11 9 12
REMARK H PARENT 3 5
REMARK Flexibility Score: inf
ROOT
ATOM      1  C   UNL     1       4.996   1.714   0.687  1.00  0.00     0.127 C 
ENDROOT
BRANCH   1   2
ATOM      2  C   UNL     1       4.487   1.089   1.920  1.00  0.00     0.303 C 
ATOM      3  O   UNL     1       5.186   0.212   2.496  1.00  0.00    -0.252 OA
BRANCH   2   4
ATOM      4  O   UNL     1       3.249   1.438   2.480  1.00  0.00    -0.481 OA
ATOM      5  H   UNL     1       2.951   2.403   2.431  1.00  0.00     0.296 HD
ENDBRANCH   2   4
ENDBRANCH   1   2
BRANCH   1   6
ATOM      6  C   UNL     1       6.507   1.863   0.700  1.00  0.00     0.047 C 
BRANCH   6   7
ATOM      7  C   UNL     1       7.132   1.044  -0.371  1.00  0.00    -0.047 A 
ATOM      8  C   UNL     1       8.483   1.171  -0.662  1.00  0.00     0.004 A 
ATOM      9  C   UNL     1       6.419   0.135  -1.131  1.00  0.00     0.004 A 
ATOM     10  C   UNL     1       9.089   0.435  -1.654  1.00  0.00     0.000 A 
ATOM     11  C   UNL     1       7.027  -0.601  -2.124  1.00  0.00     0.000 A 
ATOM     12  C   UNL     1       8.368  -0.469  -2.408  1.00  0.00     0.000 A 
ENDBRANCH   6   7
ENDBRANCH   1   6
TORSDOF 4
ENDMDL
MODEL 5
REMARK VINA RESULT:      -6.6      1.945      2.660
REMARK SMILES O=C(O)CCc1ccccc1
REMARK SMILES IDX 4 1 2 2 1 3 3 4 5 6 6 7 7 8 11 9 8 10 10 11 9 12
REMARK H PARENT 3 5
REMARK Flexibility Score: inf
ROOT
ATOM      1  C   UNL     1       8.273   0.186  -2.178  1.00  0.00     0.127 C 
ENDROOT
BRANCH   1   2
ATOM      2  C   UNL     1       9.403   0.369  -1.250  1.00  0.00     0.303 C 
ATOM      3  O   UNL     1       9.477  -0.360  -0.224  1.00  0.00    -0.252 OA
BRANCH   2   4
ATOM      4  O   UNL     1      10.404   1.327  -1.470  1.00  0.00    -0.481 OA
ATOM      5  H   UNL     1      10.277   1.994  -2.219  1.00  0.00     0.296 HD
ENDBRANCH   2   4
ENDBRANCH   1   2
BRANCH   1   6
ATOM      6  C   UNL     1       7.161  -0.650  -1.570  1.00  0.00     0.047 C 
BRANCH   6   7
ATOM      7  C   UNL     1       6.378   0.141  -0.585  1.00  0.00    -0.047 A 
ATOM      8  C   UNL     1       5.843   1.373  -0.932  1.00  0.00     0.004 A 
ATOM      9  C   UNL     1       6.151  -0.289   0.709  1.00  0.00     0.004 A 
ATOM     10  C   UNL     1       5.122   2.134  -0.041  1.00  0.00     0.000 A 
ATOM     11  C   UNL     1       5.429   0.474   1.602  1.00  0.00     0.000 A 
ATOM     12  C   UNL     1       4.902   1.696   1.250  1.00  0.00     0.000 A 
ENDBRANCH   6   7
ENDBRANCH   1   6
TORSDOF 4
ENDMDL
