MODEL 1
REMARK VINA RESULT:      -7.3      0.000      0.000
REMARK SMILES O=C(O)CCc1ccccc1
REMARK SMILES IDX 4 1 2 2 1 3 3 4 5 6 6 7 7 8 11 9 8 10 10 11 9 12
REMARK H PARENT 3 5
REMARK Flexibility Score: inf
ROOT
ATOM      1  C   UNL     1       8.415  -0.663  -2.127  1.00  0.00     0.127 C 
ENDROOT
BRANCH   1   2
ATOM      2  C   UNL     1       8.458  -1.910  -2.910  1.00  0.00     0.303 C 
ATOM      3  O   UNL     1       9.570  -2.470  -3.109  1.00  0.00    -0.252 OA
BRANCH   2   4
ATOM      4  O   UNL     1       7.302  -2.499  -3.443  1.00  0.00    -0.481 OA
ATOM      5  H   UNL     1       6.612  -1.902  -3.878  1.00  0.00     0.296 HD
ENDBRANCH   2   4
ENDBRANCH   1   2
BRANCH   1   6
ATOM      6  C   UNL     1       7.036  -0.028  -2.134  1.00  0.00     0.047 C 
BRANCH   6   7
ATOM      7  C   UNL     1       6.483   0.060  -0.758  1.00  0.00    -0.047 A 
ATOM      8  C   UNL     1       5.816   1.201  -0.335  1.00  0.00     0.004 A 
ATOM      9  C   UNL     1       6.605  -0.962   0.165  1.00  0.00     0.004 A 
ATOM     10  C   UNL     1       5.301   1.318   0.936  1.00  0.00     0.000 A 
ATOM     11  C   UNL     1       6.089  -0.844   1.438  1.00  0.00     0.000 A 
ATOM     12  C   UNL     1       5.430   0.292   1.850  1.00  0.00     0.000 A 
ENDBRANCH   6   7
ENDBRANCH   1   6
TORSDOF 4
ENDMDL
MODEL 2
REMARK VINA RESULT:      -7.2      0.105      1.723
REMARK SMILES O=C(O)CCc1ccccc1
REMARK SMILES IDX 4 1 2 2 1 3 3 4 5 6 6 7 7 8 11 9 8 10 10 11 9 12
REMARK H PARENT 3 5
REMARK Flexibility Score: inf
ROOT
ATOM      1  C   UNL     1       8.417  -0.639  -2.148  1.00  0.00     0.127 C 
ENDROOT
BRANCH   1   2
ATOM      2  C   UNL     1       8.426  -1.909  -2.894  1.00  0.00     0.303 C 
ATOM      3  O   UNL     1       7.327  -2.438  -3.215  1.00  0.00    -0.252 OA
BRANCH   2   4
ATOM      4  O   UNL     1       9.616  -2.553  -3.263  1.00  0.00    -0.481 OA
ATOM      5  H   UNL     1      10.250  -2.851  -2.534  1.00  0.00     0.296 HD
ENDBRANCH   2   4
ENDBRANCH   1   2
BRANCH   1   6
ATOM      6  C   UNL     1       7.048   0.018  -2.148  1.00  0.00     0.047 C 
BRANCH   6   7
ATOM      7  C   UNL     1       6.502   0.109  -0.768  1.00  0.00    -0.047 A 
ATOM      8  C   UNL     1       6.624  -0.956   0.113  1.00  0.00     0.004 A 
ATOM      9  C   UNL     1       5.846   1.231  -0.296  1.00  0.00     0.004 A 
ATOM     10  C   UNL     1       6.120  -0.906   1.393  1.00  0.00     0.000 A 
ATOM     11  C   UNL     1       5.342   1.279   0.986  1.00  0.00     0.000 A 
ATOM     12  C   UNL     1       5.465   0.218   1.854  1.00  0.00     0.000 A 
ENDBRANCH   6   7
ENDBRANCH   1   6
TORSDOF 4
ENDMDL
MODEL 3
REMARK VINA RESULT:      -6.8      3.375      5.071
REMARK SMILES O=C(O)CCc1ccccc1
REMARK SMILES IDX 4 1 2 2 1 3 3 4 5 6 6 7 7 8 11 9 8 10 10 11 9 12
REMARK H PARENT 3 5
REMARK Flexibility Score: inf
ROOT
ATOM      1  C   UNL     1       5.037   1.704   0.720  1.00  0.00     0.127 C 
ENDROOT
BRANCH   1   2
ATOM      2  C   UNL     1       4.559   1.031   1.941  1.00  0.00     0.303 C 
ATOM      3  O   UNL     1       5.291   0.163   2.488  1.00  0.00    -0.252 OA
BRANCH   2   4
ATOM      4  O   UNL     1       3.315   1.325   2.518  1.00  0.00    -0.481 OA
ATOM      5  H   UNL     1       2.861   2.195   2.273  1.00  0.00     0.296 HD
ENDBRANCH   2   4
ENDBRANCH   1   2
BRANCH   1   6
ATOM      6  C   UNL     1       6.544   1.886   0.717  1.00  0.00     0.047 C 
BRANCH   6   7
ATOM      7  C   UNL     1       7.176   1.080  -0.360  1.00  0.00    -0.047 A 
ATOM      8  C   UNL     1       6.433   0.156  -1.080  1.00  0.00     0.004 A 
ATOM      9  C   UNL     1       8.513   1.194  -0.693  1.00  0.00     0.004 A 
ATOM     10  C   UNL     1       6.992  -0.613  -2.076  1.00  0.00     0.000 A 
ATOM     11  C   UNL     1       9.071   0.424  -1.691  1.00  0.00     0.000 A 
ATOM     12  C   UNL     1       8.328  -0.493  -2.400  1.00  0.00     0.000 A 
ENDBRANCH   6   7
ENDBRANCH   1   6
TORSDOF 4
ENDMDL
MODEL 4
REMARK VINA RESULT:      -6.6      1.941      2.336
REMARK SMILES O=C(O)CCc1ccccc1
REMARK SMILES IDX 4 1 2 2 1 3 3 4 5 6 6 7 7 8 11 9 8 10 10 11 9 12
REMARK H PARENT 3 5
REMARK Flexibility Score: inf
ROOT
ATOM      1  C   UNL     1       8.261   0.123  -2.187  1.00  0.00     0.127 C 
ENDROOT
BRANCH   1   2
ATOM      2  C   UNL     1       9.375   0.334  -1.245  1.00  0.00     0.303 C 
ATOM      3  O   UNL     1       9.460  -0.401  -0.223  1.00  0.00    -0.252 OA
BRANCH   2   4
ATOM      4  O   UNL     1      10.348   1.324  -1.446  1.00  0.00    -0.481 OA
ATOM      5  H   UNL     1      11.234   1.235  -0.968  1.00  0.00     0.296 HD
ENDBRANCH   2   4
ENDBRANCH   1   2
BRANCH   1   6
ATOM      6  C   UNL     1       7.123  -0.663  -1.562  1.00  0.00     0.047 C 
BRANCH   6   7
ATOM      7  C   UNL     1       6.350   0.181  -0.614  1.00  0.00    -0.047 A 
ATOM      8  C   UNL     1       5.848   1.412  -1.010  1.00  0.00     0.004 A 
ATOM      9  C   UNL     1       6.100  -0.198   0.692  1.00  0.00     0.004 A 
ATOM     10  C   UNL     1       5.138   2.221  -0.153  1.00  0.00     0.000 A 
ATOM     11  C   UNL     1       5.388   0.613   1.550  1.00  0.00     0.000 A 
ATOM     12  C   UNL     1       4.895   1.834   1.150  1.00  0.00     0.000 A 
ENDBRANCH   6   7
ENDBRANCH   1   6
TORSDOF 4
ENDMDL
MODEL 5
REMARK VINA RESULT:      -6.6      1.979      2.955
REMARK SMILES O=C(O)CCc1ccccc1
REMARK SMILES IDX 4 1 2 2 1 3 3 4 5 6 6 7 7 8 11 9 8 10 10 11 9 12
REMARK H PARENT 3 5
REMARK Flexibility Score: inf
ROOT
ATOM      1  C   UNL     1       8.297  -1.697   1.139  1.00  0.00     0.127 C 
ENDROOT
BRANCH   1   2
ATOM      2  C   UNL     1       8.687  -2.947   0.464  1.00  0.00     0.303 C 
ATOM      3  O   UNL     1       9.421  -3.770   1.075  1.00  0.00    -0.252 OA
BRANCH   2   4
ATOM      4  O   UNL     1       8.268  -3.255  -0.839  1.00  0.00    -0.481 OA
ATOM      5  H   UNL     1       8.288  -2.525  -1.538  1.00  0.00     0.296 HD
ENDBRANCH   2   4
ENDBRANCH   1   2
BRANCH   1   6
ATOM      6  C   UNL     1       6.802  -1.624   1.393  1.00  0.00     0.047 C 
BRANCH   6   7
ATOM      7  C   UNL     1       6.234  -0.355   0.868  1.00  0.00    -0.047 A 
ATOM      8  C   UNL     1       6.476   0.042  -0.440  1.00  0.00     0.004 A 
ATOM      9  C   UNL     1       5.457   0.492   1.637  1.00  0.00     0.004 A 
ATOM     10  C   UNL     1       5.973   1.216  -0.952  1.00  0.00     0.000 A 
ATOM     11  C   UNL     1       4.954   1.668   1.122  1.00  0.00     0.000 A 
ATOM     12  C   UNL     1       5.200   2.055  -0.176  1.00  0.00     0.000 A 
ENDBRANCH   6   7
ENDBRANCH   1   6
TORSDOF 4
ENDMDL
