@<TRIPOS>MOLECULE
/home/cewinharhar/GITHUB/reincatalyze/data/processed/docking_pred/2023-Apr-25-2248_maxeplen10_maxtrainstep1000_exh16_gamma099_lrac3e-4_lrcr1e-3/1a0a4210c7fbec369f44508687af2363e72d8760_ligand_2.pdbqt
 12 12 0 0 0
SMALL
GASTEIGER

@<TRIPOS>ATOM
      1  C          5.0370    1.7040    0.7200 C.3     1  UNL1        0.1270
      2  C          4.5590    1.0310    1.9410 C.2     1  UNL1        0.3030
      3  O          5.2910    0.1630    2.4880 O.2     1  UNL1       -0.2520
      4  O          3.3150    1.3250    2.5180 O.3     1  UNL1       -0.4810
      5  H          2.8610    2.1950    2.2730 H       1  UNL1        0.2960
      6  C          6.5440    1.8860    0.7170 C.3     1  UNL1        0.0470
      7  C          7.1760    1.0800   -0.3600 C.2     1  UNL1       -0.0470
      8  C          6.4330    0.1560   -1.0800 C.2     1  UNL1        0.0040
      9  C          8.5130    1.1940   -0.6930 C.2     1  UNL1        0.0040
     10  C          6.9920   -0.6130   -2.0760 C.2     1  UNL1        0.0000
     11  C          9.0710    0.4240   -1.6910 C.2     1  UNL1        0.0000
     12  C          8.3280   -0.4930   -2.4000 C.2     1  UNL1        0.0000
@<TRIPOS>BOND
     1    12    10    2
     2    12    11    1
     3    10     8    1
     4    11     9    2
     5     8     7    2
     6     9     7    1
     7     7     6    1
     8     6     1    1
     9     1     2    1
    10     2     3    2
    11     2     4    1
    12     5     4    1
