@<TRIPOS>MOLECULE
/home/cewinharhar/GITHUB/reincatalyze/data/processed/docking_pred/2023-Apr-25-2248_maxeplen10_maxtrainstep1000_exh16_gamma099_lrac3e-4_lrcr1e-3/1a0a4210c7fbec369f44508687af2363e72d8760_ligand_2.pdbqt
 12 12 0 0 0
SMALL
GASTEIGER

@<TRIPOS>ATOM
      1  C          8.2610    0.1230   -2.1870 C.3     1  UNL1        0.1270
      2  C          9.3750    0.3340   -1.2450 C.2     1  UNL1        0.3030
      3  O          9.4600   -0.4010   -0.2230 O.2     1  UNL1       -0.2520
      4  O         10.3480    1.3240   -1.4460 O.3     1  UNL1       -0.4810
      5  H         11.2340    1.2350   -0.9680 H       1  UNL1        0.2960
      6  C          7.1230   -0.6630   -1.5620 C.3     1  UNL1        0.0470
      7  C          6.3500    0.1810   -0.6140 C.2     1  UNL1       -0.0470
      8  C          5.8480    1.4120   -1.0100 C.2     1  UNL1        0.0040
      9  C          6.1000   -0.1980    0.6920 C.2     1  UNL1        0.0040
     10  C          5.1380    2.2210   -0.1530 C.2     1  UNL1        0.0000
     11  C          5.3880    0.6130    1.5500 C.2     1  UNL1        0.0000
     12  C          4.8950    1.8340    1.1500 C.2     1  UNL1        0.0000
@<TRIPOS>BOND
     1     1     6    1
     2     1     2    1
     3     6     7    1
     4     4     2    1
     5     4     5    1
     6     2     3    2
     7     8     7    2
     8     8    10    1
     9     7     9    1
    10    10    12    2
    11     9    11    2
    12    12    11    1
