@<TRIPOS>MOLECULE
/home/cewinharhar/GITHUB/reincatalyze/data/processed/docking_pred/2023-Apr-25-2248_maxeplen10_maxtrainstep1000_exh16_gamma099_lrac3e-4_lrcr1e-3/1a0a4210c7fbec369f44508687af2363e72d8760_ligand_2.pdbqt
 12 12 0 0 0
SMALL
GASTEIGER

@<TRIPOS>ATOM
      1  C          8.4150   -0.6630   -2.1270 C.3     1  UNL1        0.1270
      2  C          8.4580   -1.9100   -2.9100 C.2     1  UNL1        0.3030
      3  O          9.5700   -2.4700   -3.1090 O.2     1  UNL1       -0.2520
      4  O          7.3020   -2.4990   -3.4430 O.3     1  UNL1       -0.4810
      5  H          6.6120   -1.9020   -3.8780 H       1  UNL1        0.2960
      6  C          7.0360   -0.0280   -2.1340 C.3     1  UNL1        0.0470
      7  C          6.4830    0.0600   -0.7580 C.2     1  UNL1       -0.0470
      8  C          5.8160    1.2010   -0.3350 C.2     1  UNL1        0.0040
      9  C          6.6050   -0.9620    0.1650 C.2     1  UNL1        0.0040
     10  C          5.3010    1.3180    0.9360 C.2     1  UNL1        0.0000
     11  C          6.0890   -0.8440    1.4380 C.2     1  UNL1        0.0000
     12  C          5.4300    0.2920    1.8500 C.2     1  UNL1        0.0000
@<TRIPOS>BOND
     1     5     4    1
     2     4     2    1
     3     3     2    2
     4     2     1    1
     5     6     1    1
     6     6     7    1
     7     7     8    2
     8     7     9    1
     9     8    10    1
    10     9    11    2
    11    10    12    2
    12    11    12    1
