@<TRIPOS>MOLECULE
/home/cewinharhar/GITHUB/reincatalyze/data/processed/docking_pred/2023-Apr-25-2248_maxeplen10_maxtrainstep1000_exh16_gamma099_lrac3e-4_lrcr1e-3/1a0a4210c7fbec369f44508687af2363e72d8760_ligand_2.pdbqt
 12 12 0 0 0
SMALL
GASTEIGER

@<TRIPOS>ATOM
      1  C          8.4170   -0.6390   -2.1480 C.3     1  UNL1        0.1270
      2  C          8.4260   -1.9090   -2.8940 C.2     1  UNL1        0.3030
      3  O          7.3270   -2.4380   -3.2150 O.2     1  UNL1       -0.2520
      4  O          9.6160   -2.5530   -3.2630 O.3     1  UNL1       -0.4810
      5  H         10.2500   -2.8510   -2.5340 H       1  UNL1        0.2960
      6  C          7.0480    0.0180   -2.1480 C.3     1  UNL1        0.0470
      7  C          6.5020    0.1090   -0.7680 C.2     1  UNL1       -0.0470
      8  C          6.6240   -0.9560    0.1130 C.2     1  UNL1        0.0040
      9  C          5.8460    1.2310   -0.2960 C.2     1  UNL1        0.0040
     10  C          6.1200   -0.9060    1.3930 C.2     1  UNL1        0.0000
     11  C          5.3420    1.2790    0.9860 C.2     1  UNL1        0.0000
     12  C          5.4650    0.2180    1.8540 C.2     1  UNL1        0.0000
@<TRIPOS>BOND
     1     4     2    1
     2     4     5    1
     3     3     2    2
     4     2     1    1
     5     1     6    1
     6     6     7    1
     7     7     9    2
     8     7     8    1
     9     9    11    1
    10     8    10    2
    11    11    12    2
    12    10    12    1
