@<TRIPOS>MOLECULE
/home/cewinharhar/GITHUB/reincatalyze/data/processed/docking_pred/2023-Apr-25-2248_maxeplen10_maxtrainstep1000_exh16_gamma099_lrac3e-4_lrcr1e-3/1a0a4210c7fbec369f44508687af2363e72d8760_ligand_2.pdbqt
 12 12 0 0 0
SMALL
GASTEIGER

@<TRIPOS>ATOM
      1  C          8.2970   -1.6970    1.1390 C.3     1  UNL1        0.1270
      2  C          8.6870   -2.9470    0.4640 C.2     1  UNL1        0.3030
      3  O          9.4210   -3.7700    1.0750 O.2     1  UNL1       -0.2520
      4  O          8.2680   -3.2550   -0.8390 O.3     1  UNL1       -0.4810
      5  H          8.2880   -2.5250   -1.5380 H       1  UNL1        0.2960
      6  C          6.8020   -1.6240    1.3930 C.3     1  UNL1        0.0470
      7  C          6.2340   -0.3550    0.8680 C.2     1  UNL1       -0.0470
      8  C          6.4760    0.0420   -0.4400 C.2     1  UNL1        0.0040
      9  C          5.4570    0.4920    1.6370 C.2     1  UNL1        0.0040
     10  C          5.9730    1.2160   -0.9520 C.2     1  UNL1        0.0000
     11  C          4.9540    1.6680    1.1220 C.2     1  UNL1        0.0000
     12  C          5.2000    2.0550   -0.1760 C.2     1  UNL1        0.0000
@<TRIPOS>BOND
     1     5     4    1
     2    10     8    1
     3    10    12    2
     4     4     2    1
     5     8     7    2
     6    12    11    1
     7     2     3    2
     8     2     1    1
     9     7     6    1
    10     7     9    1
    11    11     9    2
    12     1     6    1
