@<TRIPOS>MOLECULE
/home/cewinharhar/GITHUB/reincatalyze/data/processed/docking_pred/2023-Apr-25-2248_maxeplen10_maxtrainstep1000_exh16_gamma099_lrac3e-4_lrcr1e-3/1b5ae47dc41e9fd81b532b383f57e012b2e09fc7_ligand_2.pdbqt
 12 12 0 0 0
SMALL
GASTEIGER

@<TRIPOS>ATOM
      1  C          8.1300   -1.5260    1.0260 C.3     1  UNL1        0.1270
      2  C          8.4320   -2.7540    0.2700 C.2     1  UNL1        0.3030
      3  O          9.0510   -3.6910    0.8440 O.2     1  UNL1       -0.2520
      4  O          8.0530   -2.9190   -1.0710 O.3     1  UNL1       -0.4810
      5  H          8.7010   -2.6380   -1.7940 H       1  UNL1        0.2960
      6  C          6.6510   -1.3980    1.3450 C.3     1  UNL1        0.0470
      7  C          6.1000   -0.1250    0.8120 C.2     1  UNL1       -0.0470
      8  C          6.3750    0.2760   -0.4880 C.2     1  UNL1        0.0040
      9  C          5.3070    0.7220    1.5650 C.2     1  UNL1        0.0040
     10  C          5.8890    1.4540   -1.0080 C.2     1  UNL1        0.0000
     11  C          4.8210    1.9010    1.0430 C.2     1  UNL1        0.0000
     12  C          5.0990    2.2920   -0.2470 C.2     1  UNL1        0.0000
@<TRIPOS>BOND
     1     5     4    1
     2     4     2    1
     3    10     8    1
     4    10    12    2
     5     8     7    2
     6    12    11    1
     7     2     3    2
     8     2     1    1
     9     7     6    1
    10     7     9    1
    11     1     6    1
    12    11     9    2
