@<TRIPOS>MOLECULE
/home/cewinharhar/GITHUB/reincatalyze/data/processed/docking_pred/2023-Apr-25-2248_maxeplen10_maxtrainstep1000_exh16_gamma099_lrac3e-4_lrcr1e-3/1b5ae47dc41e9fd81b532b383f57e012b2e09fc7_ligand_2.pdbqt
 12 12 0 0 0
SMALL
GASTEIGER

@<TRIPOS>ATOM
      1  C          8.4160   -0.5910   -2.2320 C.3     1  UNL1        0.1270
      2  C          8.4570   -1.8900   -2.9260 C.2     1  UNL1        0.3030
      3  O          9.5680   -2.4640   -3.0850 O.2     1  UNL1       -0.2520
      4  O          7.3000   -2.5140   -3.4150 O.3     1  UNL1       -0.4810
      5  H          6.6280   -1.9550   -3.9240 H       1  UNL1        0.2960
      6  C          7.0230    0.0150   -2.2300 C.3     1  UNL1        0.0470
      7  C          6.4900    0.1210   -0.8470 C.2     1  UNL1       -0.0470
      8  C          5.8890    1.2920   -0.4080 C.2     1  UNL1        0.0040
      9  C          6.5700   -0.9140    0.0670 C.2     1  UNL1        0.0040
     10  C          5.3950    1.4250    0.8700 C.2     1  UNL1        0.0000
     11  C          6.0740   -0.7790    1.3460 C.2     1  UNL1        0.0000
     12  C          5.4800    0.3860    1.7750 C.2     1  UNL1        0.0000
@<TRIPOS>BOND
     1     5     4    1
     2     4     2    1
     3     3     2    2
     4     2     1    1
     5     1     6    1
     6     6     7    1
     7     7     8    2
     8     7     9    1
     9     8    10    1
    10     9    11    2
    11    10    12    2
    12    11    12    1
