@<TRIPOS>MOLECULE
/home/cewinharhar/GITHUB/reincatalyze/data/processed/docking_pred/2023-Apr-25-2248_maxeplen10_maxtrainstep1000_exh16_gamma099_lrac3e-4_lrcr1e-3/1b5ae47dc41e9fd81b532b383f57e012b2e09fc7_ligand_2.pdbqt
 12 12 0 0 0
SMALL
GASTEIGER

@<TRIPOS>ATOM
      1  C          4.9900    1.7640    0.7050 C.3     1  UNL1        0.1270
      2  C          4.4710    1.1140    1.9210 C.2     1  UNL1        0.3030
      3  O          5.1630    0.2220    2.4820 O.2     1  UNL1       -0.2520
      4  O          3.2300    1.4550    2.4800 O.3     1  UNL1       -0.4810
      5  H          2.8420    0.8570    3.1960 H       1  UNL1        0.2960
      6  C          6.5020    1.8990    0.7270 C.3     1  UNL1        0.0470
      7  C          7.1260    1.0830   -0.3470 C.2     1  UNL1       -0.0470
      8  C          8.4730    1.2230   -0.6500 C.2     1  UNL1        0.0040
      9  C          6.4150    0.1640   -1.0970 C.2     1  UNL1        0.0040
     10  C          9.0770    0.4900   -1.6450 C.2     1  UNL1        0.0000
     11  C          7.0230   -0.5690   -2.0940 C.2     1  UNL1        0.0000
     12  C          8.3590   -0.4240   -2.3890 C.2     1  UNL1        0.0000
@<TRIPOS>BOND
     1    12    11    2
     2    12    10    1
     3    11     9    1
     4    10     8    2
     5     9     7    2
     6     8     7    1
     7     7     6    1
     8     1     6    1
     9     1     2    1
    10     2     4    1
    11     2     3    2
    12     4     5    1
