MODEL 1
REMARK VINA RESULT:      -7.3      0.000      0.000
REMARK SMILES O=C(O)CCc1ccccc1
REMARK SMILES IDX 4 1 2 2 1 3 3 4 5 6 6 7 7 8 11 9 8 10 10 11 9 12
REMARK H PARENT 3 5
REMARK Flexibility Score: inf
ROOT
ATOM      1  C   UNL     1       8.396  -0.603  -2.190  1.00  0.00     0.127 C 
ENDROOT
BRANCH   1   2
ATOM      2  C   UNL     1       8.447  -1.890  -2.906  1.00  0.00     0.303 C 
ATOM      3  O   UNL     1       9.560  -2.464  -3.055  1.00  0.00    -0.252 OA
BRANCH   2   4
ATOM      4  O   UNL     1       7.298  -2.503  -3.427  1.00  0.00    -0.481 OA
ATOM      5  H   UNL     1       6.983  -3.370  -3.014  1.00  0.00     0.296 HD
ENDBRANCH   2   4
ENDBRANCH   1   2
BRANCH   1   6
ATOM      6  C   UNL     1       6.999  -0.009  -2.177  1.00  0.00     0.047 C 
BRANCH   6   7
ATOM      7  C   UNL     1       6.477   0.094  -0.789  1.00  0.00    -0.047 A 
ATOM      8  C   UNL     1       6.600  -0.970   0.094  1.00  0.00     0.004 A 
ATOM      9  C   UNL     1       5.843   1.226  -0.310  1.00  0.00     0.004 A 
ATOM     10  C   UNL     1       6.118  -0.909   1.381  1.00  0.00     0.000 A 
ATOM     11  C   UNL     1       5.361   1.284   0.980  1.00  0.00     0.000 A 
ATOM     12  C   UNL     1       5.486   0.225   1.850  1.00  0.00     0.000 A 
ENDBRANCH   6   7
ENDBRANCH   1   6
TORSDOF 4
ENDMDL
MODEL 2
REMARK VINA RESULT:      -7.3      0.103      1.424
REMARK SMILES O=C(O)CCc1ccccc1
REMARK SMILES IDX 4 1 2 2 1 3 3 4 5 6 6 7 7 8 11 9 8 10 10 11 9 12
REMARK H PARENT 3 5
REMARK Flexibility Score: inf
ROOT
ATOM      1  C   UNL     1       8.416  -0.591  -2.232  1.00  0.00     0.127 C 
ENDROOT
BRANCH   1   2
ATOM      2  C   UNL     1       8.457  -1.890  -2.926  1.00  0.00     0.303 C 
ATOM      3  O   UNL     1       9.568  -2.464  -3.085  1.00  0.00    -0.252 OA
BRANCH   2   4
ATOM      4  O   UNL     1       7.300  -2.514  -3.415  1.00  0.00    -0.481 OA
ATOM      5  H   UNL     1       6.628  -1.955  -3.924  1.00  0.00     0.296 HD
ENDBRANCH   2   4
ENDBRANCH   1   2
BRANCH   1   6
ATOM      6  C   UNL     1       7.023   0.015  -2.230  1.00  0.00     0.047 C 
BRANCH   6   7
ATOM      7  C   UNL     1       6.490   0.121  -0.847  1.00  0.00    -0.047 A 
ATOM      8  C   UNL     1       5.889   1.292  -0.408  1.00  0.00     0.004 A 
ATOM      9  C   UNL     1       6.570  -0.914   0.067  1.00  0.00     0.004 A 
ATOM     10  C   UNL     1       5.395   1.425   0.870  1.00  0.00     0.000 A 
ATOM     11  C   UNL     1       6.074  -0.779   1.346  1.00  0.00     0.000 A 
ATOM     12  C   UNL     1       5.480   0.386   1.775  1.00  0.00     0.000 A 
ENDBRANCH   6   7
ENDBRANCH   1   6
TORSDOF 4
ENDMDL
MODEL 3
REMARK VINA RESULT:      -6.8      3.401      5.091
REMARK SMILES O=C(O)CCc1ccccc1
REMARK SMILES IDX 4 1 2 2 1 3 3 4 5 6 6 7 7 8 11 9 8 10 10 11 9 12
REMARK H PARENT 3 5
REMARK Flexibility Score: inf
ROOT
ATOM      1  C   UNL     1       4.990   1.764   0.705  1.00  0.00     0.127 C 
ENDROOT
BRANCH   1   2
ATOM      2  C   UNL     1       4.471   1.114   1.921  1.00  0.00     0.303 C 
ATOM      3  O   UNL     1       5.163   0.222   2.482  1.00  0.00    -0.252 OA
BRANCH   2   4
ATOM      4  O   UNL     1       3.230   1.455   2.480  1.00  0.00    -0.481 OA
ATOM      5  H   UNL     1       2.842   0.857   3.196  1.00  0.00     0.296 HD
ENDBRANCH   2   4
ENDBRANCH   1   2
BRANCH   1   6
ATOM      6  C   UNL     1       6.502   1.899   0.727  1.00  0.00     0.047 C 
BRANCH   6   7
ATOM      7  C   UNL     1       7.126   1.083  -0.347  1.00  0.00    -0.047 A 
ATOM      8  C   UNL     1       8.473   1.223  -0.650  1.00  0.00     0.004 A 
ATOM      9  C   UNL     1       6.415   0.164  -1.097  1.00  0.00     0.004 A 
ATOM     10  C   UNL     1       9.077   0.490  -1.645  1.00  0.00     0.000 A 
ATOM     11  C   UNL     1       7.023  -0.569  -2.094  1.00  0.00     0.000 A 
ATOM     12  C   UNL     1       8.359  -0.424  -2.389  1.00  0.00     0.000 A 
ENDBRANCH   6   7
ENDBRANCH   1   6
TORSDOF 4
ENDMDL
MODEL 4
REMARK VINA RESULT:      -6.7      3.826      4.917
REMARK SMILES O=C(O)CCc1ccccc1
REMARK SMILES IDX 4 1 2 2 1 3 3 4 5 6 6 7 7 8 11 9 8 10 10 11 9 12
REMARK H PARENT 3 5
REMARK Flexibility Score: inf
ROOT
ATOM      1  C   UNL     1       5.533   2.909  -0.002  1.00  0.00     0.127 C 
ENDROOT
BRANCH   1   2
ATOM      2  C   UNL     1       6.284   3.879   0.814  1.00  0.00     0.303 C 
ATOM      3  O   UNL     1       6.960   4.773   0.235  1.00  0.00    -0.252 OA
BRANCH   2   4
ATOM      4  O   UNL     1       6.273   3.845   2.216  1.00  0.00    -0.481 OA
ATOM      5  H   UNL     1       5.576   4.387   2.707  1.00  0.00     0.296 HD
ENDBRANCH   2   4
ENDBRANCH   1   2
BRANCH   1   6
ATOM      6  C   UNL     1       4.866   1.841   0.846  1.00  0.00     0.047 C 
BRANCH   6   7
ATOM      7  C   UNL     1       5.695   0.608   0.898  1.00  0.00    -0.047 A 
ATOM      8  C   UNL     1       5.740  -0.166   2.049  1.00  0.00     0.004 A 
ATOM      9  C   UNL     1       6.460   0.175  -0.169  1.00  0.00     0.004 A 
ATOM     10  C   UNL     1       6.506  -1.306   2.133  1.00  0.00     0.000 A 
ATOM     11  C   UNL     1       7.227  -0.968  -0.083  1.00  0.00     0.000 A 
ATOM     12  C   UNL     1       7.268  -1.729   1.062  1.00  0.00     0.000 A 
ENDBRANCH   6   7
ENDBRANCH   1   6
TORSDOF 4
ENDMDL
MODEL 5
REMARK VINA RESULT:      -6.6      1.867      2.851
REMARK SMILES O=C(O)CCc1ccccc1
REMARK SMILES IDX 4 1 2 2 1 3 3 4 5 6 6 7 7 8 11 9 8 10 10 11 9 12
REMARK H PARENT 3 5
REMARK Flexibility Score: inf
ROOT
ATOM      1  C   UNL     1       8.130  -1.526   1.026  1.00  0.00     0.127 C 
ENDROOT
BRANCH   1   2
ATOM      2  C   UNL     1       8.432  -2.754   0.270  1.00  0.00     0.303 C 
ATOM      3  O   UNL     1       9.051  -3.691   0.844  1.00  0.00    -0.252 OA
BRANCH   2   4
ATOM      4  O   UNL     1       8.053  -2.919  -1.071  1.00  0.00    -0.481 OA
ATOM      5  H   UNL     1       8.701  -2.638  -1.794  1.00  0.00     0.296 HD
ENDBRANCH   2   4
ENDBRANCH   1   2
BRANCH   1   6
ATOM      6  C   UNL     1       6.651  -1.398   1.345  1.00  0.00     0.047 C 
BRANCH   6   7
ATOM      7  C   UNL     1       6.100  -0.125   0.812  1.00  0.00    -0.047 A 
ATOM      8  C   UNL     1       6.375   0.276  -0.488  1.00  0.00     0.004 A 
ATOM      9  C   UNL     1       5.307   0.722   1.565  1.00  0.00     0.004 A 
ATOM     10  C   UNL     1       5.889   1.454  -1.008  1.00  0.00     0.000 A 
ATOM     11  C   UNL     1       4.821   1.901   1.043  1.00  0.00     0.000 A 
ATOM     12  C   UNL     1       5.099   2.292  -0.247  1.00  0.00     0.000 A 
ENDBRANCH   6   7
ENDBRANCH   1   6
TORSDOF 4
ENDMDL
