@<TRIPOS>MOLECULE
/home/cewinharhar/GITHUB/reincatalyze/data/processed/docking_pred/2023-Apr-25-2248_maxeplen10_maxtrainstep1000_exh16_gamma099_lrac3e-4_lrcr1e-3/1b5ae47dc41e9fd81b532b383f57e012b2e09fc7_ligand_2.pdbqt
 12 12 0 0 0
SMALL
GASTEIGER

@<TRIPOS>ATOM
      1  C          5.5330    2.9090   -0.0020 C.3     1  UNL1        0.1270
      2  C          6.2840    3.8790    0.8140 C.2     1  UNL1        0.3030
      3  O          6.9600    4.7730    0.2350 O.2     1  UNL1       -0.2520
      4  O          6.2730    3.8450    2.2160 O.3     1  UNL1       -0.4810
      5  H          5.5760    4.3870    2.7070 H       1  UNL1        0.2960
      6  C          4.8660    1.8410    0.8460 C.3     1  UNL1        0.0470
      7  C          5.6950    0.6080    0.8980 C.2     1  UNL1       -0.0470
      8  C          5.7400   -0.1660    2.0490 C.2     1  UNL1        0.0040
      9  C          6.4600    0.1750   -0.1690 C.2     1  UNL1        0.0040
     10  C          6.5060   -1.3060    2.1330 C.2     1  UNL1        0.0000
     11  C          7.2270   -0.9680   -0.0830 C.2     1  UNL1        0.0000
     12  C          7.2680   -1.7290    1.0620 C.2     1  UNL1        0.0000
@<TRIPOS>BOND
     1     9    11    1
     2     9     7    2
     3    11    12    2
     4     1     2    1
     5     1     6    1
     6     3     2    2
     7     2     4    1
     8     6     7    1
     9     7     8    1
    10    12    10    1
    11     8    10    2
    12     4     5    1
