@<TRIPOS>MOLECULE
/home/cewinharhar/GITHUB/reincatalyze/data/processed/docking_pred/2023-Apr-25-2248_maxeplen10_maxtrainstep1000_exh16_gamma099_lrac3e-4_lrcr1e-3/1b5ae47dc41e9fd81b532b383f57e012b2e09fc7_ligand_2.pdbqt
 12 12 0 0 0
SMALL
GASTEIGER

@<TRIPOS>ATOM
      1  C          8.3960   -0.6030   -2.1900 C.3     1  UNL1        0.1270
      2  C          8.4470   -1.8900   -2.9060 C.2     1  UNL1        0.3030
      3  O          9.5600   -2.4640   -3.0550 O.2     1  UNL1       -0.2520
      4  O          7.2980   -2.5030   -3.4270 O.3     1  UNL1       -0.4810
      5  H          6.9830   -3.3700   -3.0140 H       1  UNL1        0.2960
      6  C          6.9990   -0.0090   -2.1770 C.3     1  UNL1        0.0470
      7  C          6.4770    0.0940   -0.7890 C.2     1  UNL1       -0.0470
      8  C          6.6000   -0.9700    0.0940 C.2     1  UNL1        0.0040
      9  C          5.8430    1.2260   -0.3100 C.2     1  UNL1        0.0040
     10  C          6.1180   -0.9090    1.3810 C.2     1  UNL1        0.0000
     11  C          5.3610    1.2840    0.9800 C.2     1  UNL1        0.0000
     12  C          5.4860    0.2250    1.8500 C.2     1  UNL1        0.0000
@<TRIPOS>BOND
     1     4     5    1
     2     4     2    1
     3     3     2    2
     4     2     1    1
     5     1     6    1
     6     6     7    1
     7     7     9    2
     8     7     8    1
     9     9    11    1
    10     8    10    2
    11    11    12    2
    12    10    12    1
