@<TRIPOS>MOLECULE
/home/cewinharhar/GITHUB/reincatalyze/data/processed/docking_pred/2023-Apr-25-2248_maxeplen10_maxtrainstep1000_exh16_gamma099_lrac3e-4_lrcr1e-3/1c0c8a91d3eae7937fa2398dc61f909c50ab5738_ligand_2.pdbqt
 12 12 0 0 0
SMALL
GASTEIGER

@<TRIPOS>ATOM
      1  C          8.5190    0.5730   -1.9830 C.3     1  UNL1        0.1270
      2  C          9.3200    0.1400   -3.1410 C.2     1  UNL1        0.3030
      3  O         10.3810   -0.5120   -2.9430 O.2     1  UNL1       -0.2520
      4  O          8.9440    0.4280   -4.4610 O.3     1  UNL1       -0.4810
      5  H          8.8380   -0.3380   -5.1120 H       1  UNL1        0.2960
      6  C          7.1580   -0.0980   -1.9440 C.3     1  UNL1        0.0470
      7  C          6.4910    0.1240   -0.6350 C.2     1  UNL1       -0.0470
      8  C          6.5270   -0.8510    0.3520 C.2     1  UNL1        0.0040
      9  C          5.8030    1.2840   -0.3320 C.2     1  UNL1        0.0040
     10  C          5.9110   -0.6800    1.5710 C.2     1  UNL1        0.0000
     11  C          5.1870    1.4540    0.8890 C.2     1  UNL1        0.0000
     12  C          5.2260    0.4820    1.8620 C.2     1  UNL1        0.0000
@<TRIPOS>BOND
     1     5     4    1
     2     4     2    1
     3     2     3    2
     4     2     1    1
     5     1     6    1
     6     6     7    1
     7     7     9    2
     8     7     8    1
     9     9    11    1
    10     8    10    2
    11    11    12    2
    12    10    12    1
