MODEL 1
REMARK VINA RESULT:      -7.0      0.000      0.000
REMARK SMILES O=C(O)CCc1ccccc1
REMARK SMILES IDX 4 1 2 2 1 3 3 4 5 6 6 7 7 8 11 9 8 10 10 11 9 12
REMARK H PARENT 3 5
REMARK Flexibility Score: inf
ROOT
ATOM      1  C   UNL     1       8.394  -0.725  -2.023  1.00  0.00     0.127 C 
ENDROOT
BRANCH   1   2
ATOM      2  C   UNL     1       8.407  -1.932  -2.869  1.00  0.00     0.303 C 
ATOM      3  O   UNL     1       7.310  -2.441  -3.225  1.00  0.00    -0.252 OA
BRANCH   2   4
ATOM      4  O   UNL     1       9.600  -2.534  -3.293  1.00  0.00    -0.481 OA
ATOM      5  H   UNL     1      10.352  -2.640  -2.626  1.00  0.00     0.296 HD
ENDBRANCH   2   4
ENDBRANCH   1   2
BRANCH   1   6
ATOM      6  C   UNL     1       7.053  -0.013  -2.059  1.00  0.00     0.047 C 
BRANCH   6   7
ATOM      7  C   UNL     1       6.463   0.081  -0.698  1.00  0.00    -0.047 A 
ATOM      8  C   UNL     1       5.767   1.216  -0.306  1.00  0.00     0.004 A 
ATOM      9  C   UNL     1       6.580  -0.928   0.240  1.00  0.00     0.004 A 
ATOM     10  C   UNL     1       5.219   1.338   0.950  1.00  0.00     0.000 A 
ATOM     11  C   UNL     1       6.030  -0.804   1.498  1.00  0.00     0.000 A 
ATOM     12  C   UNL     1       5.342   0.325   1.880  1.00  0.00     0.000 A 
ENDBRANCH   6   7
ENDBRANCH   1   6
TORSDOF 4
ENDMDL
MODEL 2
REMARK VINA RESULT:      -7.0      0.136      1.425
REMARK SMILES O=C(O)CCc1ccccc1
REMARK SMILES IDX 4 1 2 2 1 3 3 4 5 6 6 7 7 8 11 9 8 10 10 11 9 12
REMARK H PARENT 3 5
REMARK Flexibility Score: inf
ROOT
ATOM      1  C   UNL     1       8.383  -0.610  -2.133  1.00  0.00     0.127 C 
ENDROOT
BRANCH   1   2
ATOM      2  C   UNL     1       8.428  -1.852  -2.924  1.00  0.00     0.303 C 
ATOM      3  O   UNL     1       7.349  -2.450  -3.186  1.00  0.00    -0.252 OA
BRANCH   2   4
ATOM      4  O   UNL     1       9.631  -2.394  -3.397  1.00  0.00    -0.481 OA
ATOM      5  H   UNL     1       9.617  -2.924  -4.259  1.00  0.00     0.296 HD
ENDBRANCH   2   4
ENDBRANCH   1   2
BRANCH   1   6
ATOM      6  C   UNL     1       6.996   0.008  -2.112  1.00  0.00     0.047 C 
BRANCH   6   7
ATOM      7  C   UNL     1       6.471   0.091  -0.724  1.00  0.00    -0.047 A 
ATOM      8  C   UNL     1       6.596  -0.983   0.145  1.00  0.00     0.004 A 
ATOM      9  C   UNL     1       5.832   1.214  -0.231  1.00  0.00     0.004 A 
ATOM     10  C   UNL     1       6.111  -0.942   1.432  1.00  0.00     0.000 A 
ATOM     11  C   UNL     1       5.347   1.254   1.058  1.00  0.00     0.000 A 
ATOM     12  C   UNL     1       5.473   0.184   1.914  1.00  0.00     0.000 A 
ENDBRANCH   6   7
ENDBRANCH   1   6
TORSDOF 4
ENDMDL
MODEL 3
REMARK VINA RESULT:      -6.7      1.487      2.195
REMARK SMILES O=C(O)CCc1ccccc1
REMARK SMILES IDX 4 1 2 2 1 3 3 4 5 6 6 7 7 8 11 9 8 10 10 11 9 12
REMARK H PARENT 3 5
REMARK Flexibility Score: inf
ROOT
ATOM      1  C   UNL     1       8.519   0.573  -1.983  1.00  0.00     0.127 C 
ENDROOT
BRANCH   1   2
ATOM      2  C   UNL     1       9.320   0.140  -3.141  1.00  0.00     0.303 C 
ATOM      3  O   UNL     1      10.381  -0.512  -2.943  1.00  0.00    -0.252 OA
BRANCH   2   4
ATOM      4  O   UNL     1       8.944   0.428  -4.461  1.00  0.00    -0.481 OA
ATOM      5  H   UNL     1       8.838  -0.338  -5.112  1.00  0.00     0.296 HD
ENDBRANCH   2   4
ENDBRANCH   1   2
BRANCH   1   6
ATOM      6  C   UNL     1       7.158  -0.098  -1.944  1.00  0.00     0.047 C 
BRANCH   6   7
ATOM      7  C   UNL     1       6.491   0.124  -0.635  1.00  0.00    -0.047 A 
ATOM      8  C   UNL     1       6.527  -0.851   0.352  1.00  0.00     0.004 A 
ATOM      9  C   UNL     1       5.803   1.284  -0.332  1.00  0.00     0.004 A 
ATOM     10  C   UNL     1       5.911  -0.680   1.571  1.00  0.00     0.000 A 
ATOM     11  C   UNL     1       5.187   1.454   0.889  1.00  0.00     0.000 A 
ATOM     12  C   UNL     1       5.226   0.482   1.862  1.00  0.00     0.000 A 
ENDBRANCH   6   7
ENDBRANCH   1   6
TORSDOF 4
ENDMDL
MODEL 4
REMARK VINA RESULT:      -6.7      3.320      5.194
REMARK SMILES O=C(O)CCc1ccccc1
REMARK SMILES IDX 4 1 2 2 1 3 3 4 5 6 6 7 7 8 11 9 8 10 10 11 9 12
REMARK H PARENT 3 5
REMARK Flexibility Score: inf
ROOT
ATOM      1  C   UNL     1       5.585   1.273  -0.265  1.00  0.00     0.127 C 
ENDROOT
BRANCH   1   2
ATOM      2  C   UNL     1       5.287   1.678   1.120  1.00  0.00     0.303 C 
ATOM      3  O   UNL     1       5.426   2.888   1.448  1.00  0.00    -0.252 OA
BRANCH   2   4
ATOM      4  O   UNL     1       4.853   0.763   2.090  1.00  0.00    -0.481 OA
ATOM      5  H   UNL     1       4.197   1.078   2.792  1.00  0.00     0.296 HD
ENDBRANCH   2   4
ENDBRANCH   1   2
BRANCH   1   6
ATOM      6  C   UNL     1       6.434   0.015  -0.325  1.00  0.00     0.047 C 
BRANCH   6   7
ATOM      7  C   UNL     1       7.619   0.214  -1.200  1.00  0.00    -0.047 A 
ATOM      8  C   UNL     1       8.812   0.691  -0.678  1.00  0.00     0.004 A 
ATOM      9  C   UNL     1       7.599  -0.050  -2.557  1.00  0.00     0.004 A 
ATOM     10  C   UNL     1       9.924   0.895  -1.463  1.00  0.00     0.000 A 
ATOM     11  C   UNL     1       8.713   0.155  -3.343  1.00  0.00     0.000 A 
ATOM     12  C   UNL     1       9.894   0.630  -2.817  1.00  0.00     0.000 A 
ENDBRANCH   6   7
ENDBRANCH   1   6
TORSDOF 4
ENDMDL
MODEL 5
REMARK VINA RESULT:      -6.7      3.305      5.195
REMARK SMILES O=C(O)CCc1ccccc1
REMARK SMILES IDX 4 1 2 2 1 3 3 4 5 6 6 7 7 8 11 9 8 10 10 11 9 12
REMARK H PARENT 3 5
REMARK Flexibility Score: inf
ROOT
ATOM      1  C   UNL     1       5.638   1.361  -0.256  1.00  0.00     0.127 C 
ENDROOT
BRANCH   1   2
ATOM      2  C   UNL     1       5.336   1.697   1.147  1.00  0.00     0.303 C 
ATOM      3  O   UNL     1       5.462   2.891   1.531  1.00  0.00    -0.252 OA
BRANCH   2   4
ATOM      4  O   UNL     1       4.911   0.732   2.072  1.00  0.00    -0.481 OA
ATOM      5  H   UNL     1       5.556   0.435   2.791  1.00  0.00     0.296 HD
ENDBRANCH   2   4
ENDBRANCH   1   2
BRANCH   1   6
ATOM      6  C   UNL     1       6.428   0.070  -0.380  1.00  0.00     0.047 C 
BRANCH   6   7
ATOM      7  C   UNL     1       7.637   0.265  -1.223  1.00  0.00    -0.047 A 
ATOM      8  C   UNL     1       7.614  -0.048  -2.575  1.00  0.00     0.004 A 
ATOM      9  C   UNL     1       8.830   0.748  -0.720  1.00  0.00     0.004 A 
ATOM     10  C   UNL     1       8.719   0.110  -3.379  1.00  0.00     0.000 A 
ATOM     11  C   UNL     1       9.936   0.906  -1.527  1.00  0.00     0.000 A 
ATOM     12  C   UNL     1       9.906   0.592  -2.867  1.00  0.00     0.000 A 
ENDBRANCH   6   7
ENDBRANCH   1   6
TORSDOF 4
ENDMDL
