@<TRIPOS>MOLECULE
/home/cewinharhar/GITHUB/reincatalyze/data/processed/docking_pred/2023-Apr-25-2248_maxeplen10_maxtrainstep1000_exh16_gamma099_lrac3e-4_lrcr1e-3/1c0c8a91d3eae7937fa2398dc61f909c50ab5738_ligand_2.pdbqt
 12 12 0 0 0
SMALL
GASTEIGER

@<TRIPOS>ATOM
      1  C          8.3830   -0.6100   -2.1330 C.3     1  UNL1        0.1270
      2  C          8.4280   -1.8520   -2.9240 C.2     1  UNL1        0.3030
      3  O          7.3490   -2.4500   -3.1860 O.2     1  UNL1       -0.2520
      4  O          9.6310   -2.3940   -3.3970 O.3     1  UNL1       -0.4810
      5  H          9.6170   -2.9240   -4.2590 H       1  UNL1        0.2960
      6  C          6.9960    0.0080   -2.1120 C.3     1  UNL1        0.0470
      7  C          6.4710    0.0910   -0.7240 C.2     1  UNL1       -0.0470
      8  C          6.5960   -0.9830    0.1450 C.2     1  UNL1        0.0040
      9  C          5.8320    1.2140   -0.2310 C.2     1  UNL1        0.0040
     10  C          6.1110   -0.9420    1.4320 C.2     1  UNL1        0.0000
     11  C          5.3470    1.2540    1.0580 C.2     1  UNL1        0.0000
     12  C          5.4730    0.1840    1.9140 C.2     1  UNL1        0.0000
@<TRIPOS>BOND
     1     5     4    1
     2     4     2    1
     3     3     2    2
     4     2     1    1
     5     1     6    1
     6     6     7    1
     7     7     9    2
     8     7     8    1
     9     9    11    1
    10     8    10    2
    11    11    12    2
    12    10    12    1
