@<TRIPOS>MOLECULE
/home/cewinharhar/GITHUB/reincatalyze/data/processed/docking_pred/2023-Apr-25-2248_maxeplen10_maxtrainstep1000_exh16_gamma099_lrac3e-4_lrcr1e-3/1c0c8a91d3eae7937fa2398dc61f909c50ab5738_ligand_2.pdbqt
 12 12 0 0 0
SMALL
GASTEIGER

@<TRIPOS>ATOM
      1  C          8.3940   -0.7250   -2.0230 C.3     1  UNL1        0.1270
      2  C          8.4070   -1.9320   -2.8690 C.2     1  UNL1        0.3030
      3  O          7.3100   -2.4410   -3.2250 O.2     1  UNL1       -0.2520
      4  O          9.6000   -2.5340   -3.2930 O.3     1  UNL1       -0.4810
      5  H         10.3520   -2.6400   -2.6260 H       1  UNL1        0.2960
      6  C          7.0530   -0.0130   -2.0590 C.3     1  UNL1        0.0470
      7  C          6.4630    0.0810   -0.6980 C.2     1  UNL1       -0.0470
      8  C          5.7670    1.2160   -0.3060 C.2     1  UNL1        0.0040
      9  C          6.5800   -0.9280    0.2400 C.2     1  UNL1        0.0040
     10  C          5.2190    1.3380    0.9500 C.2     1  UNL1        0.0000
     11  C          6.0300   -0.8040    1.4980 C.2     1  UNL1        0.0000
     12  C          5.3420    0.3250    1.8800 C.2     1  UNL1        0.0000
@<TRIPOS>BOND
     1     4     2    1
     2     4     5    1
     3     3     2    2
     4     2     1    1
     5     6     1    1
     6     6     7    1
     7     7     8    2
     8     7     9    1
     9     8    10    1
    10     9    11    2
    11    10    12    2
    12    11    12    1
