@<TRIPOS>MOLECULE
/home/cewinharhar/GITHUB/reincatalyze/data/processed/docking_pred/2023-Apr-25-2248_maxeplen10_maxtrainstep1000_exh16_gamma099_lrac3e-4_lrcr1e-3/1c0c8a91d3eae7937fa2398dc61f909c50ab5738_ligand_2.pdbqt
 12 12 0 0 0
SMALL
GASTEIGER

@<TRIPOS>ATOM
      1  C          5.6380    1.3610   -0.2560 C.3     1  UNL1        0.1270
      2  C          5.3360    1.6970    1.1470 C.2     1  UNL1        0.3030
      3  O          5.4620    2.8910    1.5310 O.2     1  UNL1       -0.2520
      4  O          4.9110    0.7320    2.0720 O.3     1  UNL1       -0.4810
      5  H          5.5560    0.4350    2.7910 H       1  UNL1        0.2960
      6  C          6.4280    0.0700   -0.3800 C.3     1  UNL1        0.0470
      7  C          7.6370    0.2650   -1.2230 C.2     1  UNL1       -0.0470
      8  C          7.6140   -0.0480   -2.5750 C.2     1  UNL1        0.0040
      9  C          8.8300    0.7480   -0.7200 C.2     1  UNL1        0.0040
     10  C          8.7190    0.1100   -3.3790 C.2     1  UNL1        0.0000
     11  C          9.9360    0.9060   -1.5270 C.2     1  UNL1        0.0000
     12  C          9.9060    0.5920   -2.8670 C.2     1  UNL1        0.0000
@<TRIPOS>BOND
     1    10    12    2
     2    10     8    1
     3    12    11    1
     4     8     7    2
     5    11     9    2
     6     7     9    1
     7     7     6    1
     8     6     1    1
     9     1     2    1
    10     2     3    2
    11     2     4    1
    12     4     5    1
