@<TRIPOS>MOLECULE
/home/cewinharhar/GITHUB/reincatalyze/data/processed/docking_pred/2023-Apr-25-2248_maxeplen10_maxtrainstep1000_exh16_gamma099_lrac3e-4_lrcr1e-3/1c0c8a91d3eae7937fa2398dc61f909c50ab5738_ligand_2.pdbqt
 12 12 0 0 0
SMALL
GASTEIGER

@<TRIPOS>ATOM
      1  C          5.5850    1.2730   -0.2650 C.3     1  UNL1        0.1270
      2  C          5.2870    1.6780    1.1200 C.2     1  UNL1        0.3030
      3  O          5.4260    2.8880    1.4480 O.2     1  UNL1       -0.2520
      4  O          4.8530    0.7630    2.0900 O.3     1  UNL1       -0.4810
      5  H          4.1970    1.0780    2.7920 H       1  UNL1        0.2960
      6  C          6.4340    0.0150   -0.3250 C.3     1  UNL1        0.0470
      7  C          7.6190    0.2140   -1.2000 C.2     1  UNL1       -0.0470
      8  C          8.8120    0.6910   -0.6780 C.2     1  UNL1        0.0040
      9  C          7.5990   -0.0500   -2.5570 C.2     1  UNL1        0.0040
     10  C          9.9240    0.8950   -1.4630 C.2     1  UNL1        0.0000
     11  C          8.7130    0.1550   -3.3430 C.2     1  UNL1        0.0000
     12  C          9.8940    0.6300   -2.8170 C.2     1  UNL1        0.0000
@<TRIPOS>BOND
     1    11    12    2
     2    11     9    1
     3    12    10    1
     4     9     7    2
     5    10     8    2
     6     7     8    1
     7     7     6    1
     8     6     1    1
     9     1     2    1
    10     2     3    2
    11     2     4    1
    12     4     5    1
