@<TRIPOS>MOLECULE
/home/cewinharhar/GITHUB/reincatalyze/data/processed/docking_pred/2023-Apr-25-2248_maxeplen10_maxtrainstep1000_exh16_gamma099_lrac3e-4_lrcr1e-3/1c86ade130d2cc9f902dffb19ba95248752a952e_ligand_2.pdbqt
 12 12 0 0 0
SMALL
GASTEIGER

@<TRIPOS>ATOM
      1  C          8.5220    0.7180   -1.5650 C.3     1  UNL1        0.1270
      2  C          9.7070    0.3040   -0.7920 C.2     1  UNL1        0.3030
      3  O          9.5580   -0.4760    0.1870 O.2     1  UNL1       -0.2520
      4  O         10.9980    0.7490   -1.1100 O.3     1  UNL1       -0.4810
      5  H         11.1080    1.4260   -1.8520 H       1  UNL1        0.2960
      6  C          7.3490   -0.2260   -1.3660 C.3     1  UNL1        0.0470
      7  C          6.4310    0.2790   -0.3120 C.2     1  UNL1       -0.0470
      8  C          5.7930    1.5030   -0.4570 C.2     1  UNL1        0.0040
      9  C          6.1730   -0.4190    0.8530 C.2     1  UNL1        0.0040
     10  C          4.9460    2.0030    0.5060 C.2     1  UNL1        0.0000
     11  C          5.3240    0.0830    1.8160 C.2     1  UNL1        0.0000
     12  C          4.6960    1.2980    1.6660 C.2     1  UNL1        0.0000
@<TRIPOS>BOND
     1     5     4    1
     2     1     6    1
     3     1     2    1
     4     6     7    1
     5     4     2    1
     6     2     3    2
     7     8     7    2
     8     8    10    1
     9     7     9    1
    10    10    12    2
    11     9    11    2
    12    12    11    1
