@<TRIPOS>MOLECULE
/home/cewinharhar/GITHUB/reincatalyze/data/processed/docking_pred/2023-Apr-25-2248_maxeplen10_maxtrainstep1000_exh16_gamma099_lrac3e-4_lrcr1e-3/1c86ade130d2cc9f902dffb19ba95248752a952e_ligand_2.pdbqt
 12 12 0 0 0
SMALL
GASTEIGER

@<TRIPOS>ATOM
      1  C          8.4090   -0.6620   -2.1170 C.3     1  UNL1        0.1270
      2  C          8.4300   -1.9120   -2.8970 C.2     1  UNL1        0.3030
      3  O          9.5290   -2.5020   -3.0790 O.2     1  UNL1       -0.2520
      4  O          7.2660   -2.4720   -3.4440 O.3     1  UNL1       -0.4810
      5  H          7.1380   -2.4360   -4.4460 H       1  UNL1        0.2960
      6  C          7.0390   -0.0070   -2.1190 C.3     1  UNL1        0.0470
      7  C          6.4900    0.0840   -0.7400 C.2     1  UNL1       -0.0470
      8  C          6.6090   -0.9820    0.1410 C.2     1  UNL1        0.0040
      9  C          5.8350    1.2060   -0.2680 C.2     1  UNL1        0.0040
     10  C          6.1020   -0.9330    1.4190 C.2     1  UNL1        0.0000
     11  C          5.3290    1.2540    1.0130 C.2     1  UNL1        0.0000
     12  C          5.4490    0.1920    1.8800 C.2     1  UNL1        0.0000
@<TRIPOS>BOND
     1     5     4    1
     2     4     2    1
     3     3     2    2
     4     2     1    1
     5     6     1    1
     6     6     7    1
     7     7     9    2
     8     7     8    1
     9     9    11    1
    10     8    10    2
    11    11    12    2
    12    10    12    1
