@<TRIPOS>MOLECULE
/home/cewinharhar/GITHUB/reincatalyze/data/processed/docking_pred/2023-Apr-25-2248_maxeplen10_maxtrainstep1000_exh16_gamma099_lrac3e-4_lrcr1e-3/1c86ade130d2cc9f902dffb19ba95248752a952e_ligand_2.pdbqt
 12 12 0 0 0
SMALL
GASTEIGER

@<TRIPOS>ATOM
      1  C          4.9970    1.7700    0.6790 C.3     1  UNL1        0.1270
      2  C          4.4810    1.1300    1.9010 C.2     1  UNL1        0.3030
      3  O          5.1760    0.2430    2.4680 O.2     1  UNL1       -0.2520
      4  O          3.2410    1.4730    2.4600 O.3     1  UNL1       -0.4810
      5  H          3.2060    2.2270    3.1320 H       1  UNL1        0.2960
      6  C          6.5080    1.9090    0.6970 C.3     1  UNL1        0.0470
      7  C          7.1330    1.0800   -0.3670 C.2     1  UNL1       -0.0470
      8  C          8.4890    1.1820   -0.6390 C.2     1  UNL1        0.0040
      9  C          6.4130    0.1870   -1.1380 C.2     1  UNL1        0.0040
     10  C          9.0950    0.4370   -1.6240 C.2     1  UNL1        0.0000
     11  C          7.0210   -0.5600   -2.1250 C.2     1  UNL1        0.0000
     12  C          8.3670   -0.4520   -2.3890 C.2     1  UNL1        0.0000
@<TRIPOS>BOND
     1    12    11    2
     2    12    10    1
     3    11     9    1
     4    10     8    2
     5     9     7    2
     6     8     7    1
     7     7     6    1
     8     1     6    1
     9     1     2    1
    10     2     4    1
    11     2     3    2
    12     4     5    1
