@<TRIPOS>MOLECULE
/home/cewinharhar/GITHUB/reincatalyze/data/processed/docking_pred/2023-Apr-25-2248_maxeplen10_maxtrainstep1000_exh16_gamma099_lrac3e-4_lrcr1e-3/1c86ade130d2cc9f902dffb19ba95248752a952e_ligand_2.pdbqt
 12 12 0 0 0
SMALL
GASTEIGER

@<TRIPOS>ATOM
      1  C          8.3790   -0.6420   -2.1380 C.3     1  UNL1        0.1270
      2  C          8.3860   -1.9050   -2.8970 C.2     1  UNL1        0.3030
      3  O          7.2870   -2.4140   -3.2500 O.2     1  UNL1       -0.2520
      4  O          9.5750   -2.5620   -3.2440 O.3     1  UNL1       -0.4810
      5  H          9.8110   -3.4200   -2.7640 H       1  UNL1        0.2960
      6  C          7.0080    0.0110   -2.1230 C.3     1  UNL1        0.0470
      7  C          6.4650    0.0780   -0.7410 C.2     1  UNL1       -0.0470
      8  C          5.7970    1.2100   -0.2980 C.2     1  UNL1        0.0040
      9  C          6.6000   -0.9560    0.1670 C.2     1  UNL1        0.0040
     10  C          5.2920    1.3070    0.9790 C.2     1  UNL1        0.0000
     11  C          6.0930   -0.8570    1.4450 C.2     1  UNL1        0.0000
     12  C          5.4330    0.2700    1.8780 C.2     1  UNL1        0.0000
@<TRIPOS>BOND
     1     3     2    2
     2     4     2    1
     3     4     5    1
     4     2     1    1
     5     1     6    1
     6     6     7    1
     7     7     8    2
     8     7     9    1
     9     8    10    1
    10     9    11    2
    11    10    12    2
    12    11    12    1
