@<TRIPOS>MOLECULE
/home/cewinharhar/GITHUB/reincatalyze/data/processed/docking_pred/2023-Apr-25-2248_maxeplen10_maxtrainstep1000_exh16_gamma099_lrac3e-4_lrcr1e-3/1c86ade130d2cc9f902dffb19ba95248752a952e_ligand_2.pdbqt
 12 12 0 0 0
SMALL
GASTEIGER

@<TRIPOS>ATOM
      1  C          8.2310   -1.6090    1.0400 C.3     1  UNL1        0.1270
      2  C          8.5210   -2.8320    0.2690 C.2     1  UNL1        0.3030
      3  O          9.1570   -3.7680    0.8240 O.2     1  UNL1       -0.2520
      4  O          8.1110   -2.9910   -1.0620 O.3     1  UNL1       -0.4810
      5  H          8.7670   -3.3780   -1.7270 H       1  UNL1        0.2960
      6  C          6.7580   -1.4840    1.3870 C.3     1  UNL1        0.0470
      7  C          6.1880   -0.2240    0.8430 C.2     1  UNL1       -0.0470
      8  C          6.4390    0.1590   -0.4660 C.2     1  UNL1        0.0040
      9  C          5.4010    0.6270    1.5970 C.2     1  UNL1        0.0040
     10  C          5.9340    1.3250   -0.9960 C.2     1  UNL1        0.0000
     11  C          4.8960    1.7940    1.0650 C.2     1  UNL1        0.0000
     12  C          5.1500    2.1690   -0.2350 C.2     1  UNL1        0.0000
@<TRIPOS>BOND
     1     5     4    1
     2     4     2    1
     3    10     8    1
     4    10    12    2
     5     8     7    2
     6    12    11    1
     7     2     3    2
     8     2     1    1
     9     7     6    1
    10     7     9    1
    11     1     6    1
    12    11     9    2
