MODEL 1
REMARK VINA RESULT:      -7.3      0.000      0.000
REMARK SMILES O=C(O)CCc1ccccc1
REMARK SMILES IDX 4 1 2 2 1 3 3 4 5 6 6 7 7 8 11 9 8 10 10 11 9 12
REMARK H PARENT 3 5
REMARK Flexibility Score: inf
ROOT
ATOM      1  C   UNL     1       8.409  -0.662  -2.117  1.00  0.00     0.127 C 
ENDROOT
BRANCH   1   2
ATOM      2  C   UNL     1       8.430  -1.912  -2.897  1.00  0.00     0.303 C 
ATOM      3  O   UNL     1       9.529  -2.502  -3.079  1.00  0.00    -0.252 OA
BRANCH   2   4
ATOM      4  O   UNL     1       7.266  -2.472  -3.444  1.00  0.00    -0.481 OA
ATOM      5  H   UNL     1       7.138  -2.436  -4.446  1.00  0.00     0.296 HD
ENDBRANCH   2   4
ENDBRANCH   1   2
BRANCH   1   6
ATOM      6  C   UNL     1       7.039  -0.007  -2.119  1.00  0.00     0.047 C 
BRANCH   6   7
ATOM      7  C   UNL     1       6.490   0.084  -0.740  1.00  0.00    -0.047 A 
ATOM      8  C   UNL     1       6.609  -0.982   0.141  1.00  0.00     0.004 A 
ATOM      9  C   UNL     1       5.835   1.206  -0.268  1.00  0.00     0.004 A 
ATOM     10  C   UNL     1       6.102  -0.933   1.419  1.00  0.00     0.000 A 
ATOM     11  C   UNL     1       5.329   1.254   1.013  1.00  0.00     0.000 A 
ATOM     12  C   UNL     1       5.449   0.192   1.880  1.00  0.00     0.000 A 
ENDBRANCH   6   7
ENDBRANCH   1   6
TORSDOF 4
ENDMDL
MODEL 2
REMARK VINA RESULT:      -7.3      0.096      1.723
REMARK SMILES O=C(O)CCc1ccccc1
REMARK SMILES IDX 4 1 2 2 1 3 3 4 5 6 6 7 7 8 11 9 8 10 10 11 9 12
REMARK H PARENT 3 5
REMARK Flexibility Score: inf
ROOT
ATOM      1  C   UNL     1       8.379  -0.642  -2.138  1.00  0.00     0.127 C 
ENDROOT
BRANCH   1   2
ATOM      2  C   UNL     1       8.386  -1.905  -2.897  1.00  0.00     0.303 C 
ATOM      3  O   UNL     1       7.287  -2.414  -3.250  1.00  0.00    -0.252 OA
BRANCH   2   4
ATOM      4  O   UNL     1       9.575  -2.562  -3.244  1.00  0.00    -0.481 OA
ATOM      5  H   UNL     1       9.811  -3.420  -2.764  1.00  0.00     0.296 HD
ENDBRANCH   2   4
ENDBRANCH   1   2
BRANCH   1   6
ATOM      6  C   UNL     1       7.008   0.011  -2.123  1.00  0.00     0.047 C 
BRANCH   6   7
ATOM      7  C   UNL     1       6.465   0.078  -0.741  1.00  0.00    -0.047 A 
ATOM      8  C   UNL     1       5.797   1.210  -0.298  1.00  0.00     0.004 A 
ATOM      9  C   UNL     1       6.600  -0.956   0.167  1.00  0.00     0.004 A 
ATOM     10  C   UNL     1       5.292   1.307   0.979  1.00  0.00     0.000 A 
ATOM     11  C   UNL     1       6.093  -0.857   1.445  1.00  0.00     0.000 A 
ATOM     12  C   UNL     1       5.433   0.270   1.878  1.00  0.00     0.000 A 
ENDBRANCH   6   7
ENDBRANCH   1   6
TORSDOF 4
ENDMDL
MODEL 3
REMARK VINA RESULT:      -6.8      3.391      5.088
REMARK SMILES O=C(O)CCc1ccccc1
REMARK SMILES IDX 4 1 2 2 1 3 3 4 5 6 6 7 7 8 11 9 8 10 10 11 9 12
REMARK H PARENT 3 5
REMARK Flexibility Score: inf
ROOT
ATOM      1  C   UNL     1       4.997   1.770   0.679  1.00  0.00     0.127 C 
ENDROOT
BRANCH   1   2
ATOM      2  C   UNL     1       4.481   1.130   1.901  1.00  0.00     0.303 C 
ATOM      3  O   UNL     1       5.176   0.243   2.468  1.00  0.00    -0.252 OA
BRANCH   2   4
ATOM      4  O   UNL     1       3.241   1.473   2.460  1.00  0.00    -0.481 OA
ATOM      5  H   UNL     1       3.206   2.227   3.132  1.00  0.00     0.296 HD
ENDBRANCH   2   4
ENDBRANCH   1   2
BRANCH   1   6
ATOM      6  C   UNL     1       6.508   1.909   0.697  1.00  0.00     0.047 C 
BRANCH   6   7
ATOM      7  C   UNL     1       7.133   1.080  -0.367  1.00  0.00    -0.047 A 
ATOM      8  C   UNL     1       8.489   1.182  -0.639  1.00  0.00     0.004 A 
ATOM      9  C   UNL     1       6.413   0.187  -1.138  1.00  0.00     0.004 A 
ATOM     10  C   UNL     1       9.095   0.437  -1.624  1.00  0.00     0.000 A 
ATOM     11  C   UNL     1       7.021  -0.560  -2.125  1.00  0.00     0.000 A 
ATOM     12  C   UNL     1       8.367  -0.452  -2.389  1.00  0.00     0.000 A 
ENDBRANCH   6   7
ENDBRANCH   1   6
TORSDOF 4
ENDMDL
MODEL 4
REMARK VINA RESULT:      -6.6      1.873      2.832
REMARK SMILES O=C(O)CCc1ccccc1
REMARK SMILES IDX 4 1 2 2 1 3 3 4 5 6 6 7 7 8 11 9 8 10 10 11 9 12
REMARK H PARENT 3 5
REMARK Flexibility Score: inf
ROOT
ATOM      1  C   UNL     1       8.231  -1.609   1.040  1.00  0.00     0.127 C 
ENDROOT
BRANCH   1   2
ATOM      2  C   UNL     1       8.521  -2.832   0.269  1.00  0.00     0.303 C 
ATOM      3  O   UNL     1       9.157  -3.768   0.824  1.00  0.00    -0.252 OA
BRANCH   2   4
ATOM      4  O   UNL     1       8.111  -2.991  -1.062  1.00  0.00    -0.481 OA
ATOM      5  H   UNL     1       8.767  -3.378  -1.727  1.00  0.00     0.296 HD
ENDBRANCH   2   4
ENDBRANCH   1   2
BRANCH   1   6
ATOM      6  C   UNL     1       6.758  -1.484   1.387  1.00  0.00     0.047 C 
BRANCH   6   7
ATOM      7  C   UNL     1       6.188  -0.224   0.843  1.00  0.00    -0.047 A 
ATOM      8  C   UNL     1       6.439   0.159  -0.466  1.00  0.00     0.004 A 
ATOM      9  C   UNL     1       5.401   0.627   1.597  1.00  0.00     0.004 A 
ATOM     10  C   UNL     1       5.934   1.325  -0.996  1.00  0.00     0.000 A 
ATOM     11  C   UNL     1       4.896   1.794   1.065  1.00  0.00     0.000 A 
ATOM     12  C   UNL     1       5.150   2.169  -0.235  1.00  0.00     0.000 A 
ENDBRANCH   6   7
ENDBRANCH   1   6
TORSDOF 4
ENDMDL
MODEL 5
REMARK VINA RESULT:      -6.5      2.109      2.772
REMARK SMILES O=C(O)CCc1ccccc1
REMARK SMILES IDX 4 1 2 2 1 3 3 4 5 6 6 7 7 8 11 9 8 10 10 11 9 12
REMARK H PARENT 3 5
REMARK Flexibility Score: inf
ROOT
ATOM      1  C   UNL     1       8.522   0.718  -1.565  1.00  0.00     0.127 C 
ENDROOT
BRANCH   1   2
ATOM      2  C   UNL     1       9.707   0.304  -0.792  1.00  0.00     0.303 C 
ATOM      3  O   UNL     1       9.558  -0.476   0.187  1.00  0.00    -0.252 OA
BRANCH   2   4
ATOM      4  O   UNL     1      10.998   0.749  -1.110  1.00  0.00    -0.481 OA
ATOM      5  H   UNL     1      11.108   1.426  -1.852  1.00  0.00     0.296 HD
ENDBRANCH   2   4
ENDBRANCH   1   2
BRANCH   1   6
ATOM      6  C   UNL     1       7.349  -0.226  -1.366  1.00  0.00     0.047 C 
BRANCH   6   7
ATOM      7  C   UNL     1       6.431   0.279  -0.312  1.00  0.00    -0.047 A 
ATOM      8  C   UNL     1       5.793   1.503  -0.457  1.00  0.00     0.004 A 
ATOM      9  C   UNL     1       6.173  -0.419   0.853  1.00  0.00     0.004 A 
ATOM     10  C   UNL     1       4.946   2.003   0.506  1.00  0.00     0.000 A 
ATOM     11  C   UNL     1       5.324   0.083   1.816  1.00  0.00     0.000 A 
ATOM     12  C   UNL     1       4.696   1.298   1.666  1.00  0.00     0.000 A 
ENDBRANCH   6   7
ENDBRANCH   1   6
TORSDOF 4
ENDMDL
