@<TRIPOS>MOLECULE
/home/cewinharhar/GITHUB/reincatalyze/data/processed/docking_pred/2023-Apr-25-2248_maxeplen10_maxtrainstep1000_exh16_gamma099_lrac3e-4_lrcr1e-3/1caf15995fa8372ea76f1cb48e36fe3c815c3a18_ligand_2.pdbqt
 12 12 0 0 0
SMALL
GASTEIGER

@<TRIPOS>ATOM
      1  C          8.3990   -0.6810   -2.0950 C.3     1  UNL1        0.1270
      2  C          8.4160   -1.9250   -2.8850 C.2     1  UNL1        0.3030
      3  O          9.5110   -2.5270   -3.0550 O.2     1  UNL1       -0.2520
      4  O          7.2540   -2.4650   -3.4550 O.3     1  UNL1       -0.4810
      5  H          6.8040   -1.9580   -4.2050 H       1  UNL1        0.2960
      6  C          7.0300   -0.0250   -2.0870 C.3     1  UNL1        0.0470
      7  C          6.4840    0.0510   -0.7060 C.2     1  UNL1       -0.0470
      8  C          6.6190   -1.0180    0.1680 C.2     1  UNL1        0.0040
      9  C          5.8160    1.1620   -0.2260 C.2     1  UNL1        0.0040
     10  C          6.1160   -0.9830    1.4480 C.2     1  UNL1        0.0000
     11  C          5.3130    1.1960    1.0570 C.2     1  UNL1        0.0000
     12  C          5.4490    0.1310    1.9180 C.2     1  UNL1        0.0000
@<TRIPOS>BOND
     1     5     4    1
     2     4     2    1
     3     3     2    2
     4     2     1    1
     5     1     6    1
     6     6     7    1
     7     7     9    2
     8     7     8    1
     9     9    11    1
    10     8    10    2
    11    11    12    2
    12    10    12    1
