MODEL 1
REMARK VINA RESULT:      -7.3      0.000      0.000
REMARK SMILES O=C(O)CCc1ccccc1
REMARK SMILES IDX 4 1 2 2 1 3 3 4 5 6 6 7 7 8 11 9 8 10 10 11 9 12
REMARK H PARENT 3 5
REMARK Flexibility Score: inf
ROOT
ATOM      1  C   UNL     1       8.426  -0.679  -2.094  1.00  0.00     0.127 C 
ENDROOT
BRANCH   1   2
ATOM      2  C   UNL     1       8.439  -1.922  -2.886  1.00  0.00     0.303 C 
ATOM      3  O   UNL     1       9.537  -2.510  -3.084  1.00  0.00    -0.252 OA
BRANCH   2   4
ATOM      4  O   UNL     1       7.270  -2.476  -3.427  1.00  0.00    -0.481 OA
ATOM      5  H   UNL     1       7.351  -3.288  -4.025  1.00  0.00     0.296 HD
ENDBRANCH   2   4
ENDBRANCH   1   2
BRANCH   1   6
ATOM      6  C   UNL     1       7.065  -0.006  -2.105  1.00  0.00     0.047 C 
BRANCH   6   7
ATOM      7  C   UNL     1       6.495   0.068  -0.735  1.00  0.00    -0.047 A 
ATOM      8  C   UNL     1       5.835   1.209  -0.303  1.00  0.00     0.004 A 
ATOM      9  C   UNL     1       6.596  -0.970   0.174  1.00  0.00     0.004 A 
ATOM     10  C   UNL     1       5.305   1.312   0.963  1.00  0.00     0.000 A 
ATOM     11  C   UNL     1       6.065  -0.865   1.442  1.00  0.00     0.000 A 
ATOM     12  C   UNL     1       5.412   0.271   1.863  1.00  0.00     0.000 A 
ENDBRANCH   6   7
ENDBRANCH   1   6
TORSDOF 4
ENDMDL
MODEL 2
REMARK VINA RESULT:      -7.3      0.086      1.423
REMARK SMILES O=C(O)CCc1ccccc1
REMARK SMILES IDX 4 1 2 2 1 3 3 4 5 6 6 7 7 8 11 9 8 10 10 11 9 12
REMARK H PARENT 3 5
REMARK Flexibility Score: inf
ROOT
ATOM      1  C   UNL     1       8.399  -0.681  -2.095  1.00  0.00     0.127 C 
ENDROOT
BRANCH   1   2
ATOM      2  C   UNL     1       8.416  -1.925  -2.885  1.00  0.00     0.303 C 
ATOM      3  O   UNL     1       9.511  -2.527  -3.055  1.00  0.00    -0.252 OA
BRANCH   2   4
ATOM      4  O   UNL     1       7.254  -2.465  -3.455  1.00  0.00    -0.481 OA
ATOM      5  H   UNL     1       6.804  -1.958  -4.205  1.00  0.00     0.296 HD
ENDBRANCH   2   4
ENDBRANCH   1   2
BRANCH   1   6
ATOM      6  C   UNL     1       7.030  -0.025  -2.087  1.00  0.00     0.047 C 
BRANCH   6   7
ATOM      7  C   UNL     1       6.484   0.051  -0.706  1.00  0.00    -0.047 A 
ATOM      8  C   UNL     1       6.619  -1.018   0.168  1.00  0.00     0.004 A 
ATOM      9  C   UNL     1       5.816   1.162  -0.226  1.00  0.00     0.004 A 
ATOM     10  C   UNL     1       6.116  -0.983   1.448  1.00  0.00     0.000 A 
ATOM     11  C   UNL     1       5.313   1.196   1.057  1.00  0.00     0.000 A 
ATOM     12  C   UNL     1       5.449   0.131   1.918  1.00  0.00     0.000 A 
ENDBRANCH   6   7
ENDBRANCH   1   6
TORSDOF 4
ENDMDL
MODEL 3
REMARK VINA RESULT:      -6.8      3.395      5.098
REMARK SMILES O=C(O)CCc1ccccc1
REMARK SMILES IDX 4 1 2 2 1 3 3 4 5 6 6 7 7 8 11 9 8 10 10 11 9 12
REMARK H PARENT 3 5
REMARK Flexibility Score: inf
ROOT
ATOM      1  C   UNL     1       5.001   1.772   0.737  1.00  0.00     0.127 C 
ENDROOT
BRANCH   1   2
ATOM      2  C   UNL     1       4.463   1.104   1.936  1.00  0.00     0.303 C 
ATOM      3  O   UNL     1       5.140   0.193   2.485  1.00  0.00    -0.252 OA
BRANCH   2   4
ATOM      4  O   UNL     1       3.221   1.449   2.490  1.00  0.00    -0.481 OA
ATOM      5  H   UNL     1       3.157   2.291   3.045  1.00  0.00     0.296 HD
ENDBRANCH   2   4
ENDBRANCH   1   2
BRANCH   1   6
ATOM      6  C   UNL     1       6.514   1.898   0.781  1.00  0.00     0.047 C 
BRANCH   6   7
ATOM      7  C   UNL     1       7.145   1.115  -0.313  1.00  0.00    -0.047 A 
ATOM      8  C   UNL     1       6.402   0.208  -1.055  1.00  0.00     0.004 A 
ATOM      9  C   UNL     1       8.482   1.235  -0.644  1.00  0.00     0.004 A 
ATOM     10  C   UNL     1       6.959  -0.538  -2.067  1.00  0.00     0.000 A 
ATOM     11  C   UNL     1       9.039   0.487  -1.659  1.00  0.00     0.000 A 
ATOM     12  C   UNL     1       8.295  -0.412  -2.389  1.00  0.00     0.000 A 
ENDBRANCH   6   7
ENDBRANCH   1   6
TORSDOF 4
ENDMDL
MODEL 4
REMARK VINA RESULT:      -6.5      1.992      2.671
REMARK SMILES O=C(O)CCc1ccccc1
REMARK SMILES IDX 4 1 2 2 1 3 3 4 5 6 6 7 7 8 11 9 8 10 10 11 9 12
REMARK H PARENT 3 5
REMARK Flexibility Score: inf
ROOT
ATOM      1  C   UNL     1       8.345   0.326  -1.907  1.00  0.00     0.127 C 
ENDROOT
BRANCH   1   2
ATOM      2  C   UNL     1       9.499   0.210  -0.998  1.00  0.00     0.303 C 
ATOM      3  O   UNL     1       9.410  -0.539   0.013  1.00  0.00    -0.252 OA
BRANCH   2   4
ATOM      4  O   UNL     1      10.697   0.904  -1.219  1.00  0.00    -0.481 OA
ATOM      5  H   UNL     1      10.836   1.358  -2.112  1.00  0.00     0.296 HD
ENDBRANCH   2   4
ENDBRANCH   1   2
BRANCH   1   6
ATOM      6  C   UNL     1       7.169  -0.519  -1.451  1.00  0.00     0.047 C 
BRANCH   6   7
ATOM      7  C   UNL     1       6.353   0.203  -0.440  1.00  0.00    -0.047 A 
ATOM      8  C   UNL     1       6.121  -0.352   0.810  1.00  0.00     0.004 A 
ATOM      9  C   UNL     1       5.782   1.439  -0.683  1.00  0.00     0.004 A 
ATOM     10  C   UNL     1       5.363   0.287   1.764  1.00  0.00     0.000 A 
ATOM     11  C   UNL     1       5.023   2.078   0.273  1.00  0.00     0.000 A 
ATOM     12  C   UNL     1       4.796   1.520   1.511  1.00  0.00     0.000 A 
ENDBRANCH   6   7
ENDBRANCH   1   6
TORSDOF 4
ENDMDL
MODEL 5
REMARK VINA RESULT:      -6.5      1.966      2.896
REMARK SMILES O=C(O)CCc1ccccc1
REMARK SMILES IDX 4 1 2 2 1 3 3 4 5 6 6 7 7 8 11 9 8 10 10 11 9 12
REMARK H PARENT 3 5
REMARK Flexibility Score: inf
ROOT
ATOM      1  C   UNL     1       8.304  -1.685   0.957  1.00  0.00     0.127 C 
ENDROOT
BRANCH   1   2
ATOM      2  C   UNL     1       8.667  -2.992   0.382  1.00  0.00     0.303 C 
ATOM      3  O   UNL     1       9.422  -3.761   1.036  1.00  0.00    -0.252 OA
BRANCH   2   4
ATOM      4  O   UNL     1       8.199  -3.413  -0.872  1.00  0.00    -0.481 OA
ATOM      5  H   UNL     1       7.894  -4.371  -0.977  1.00  0.00     0.296 HD
ENDBRANCH   2   4
ENDBRANCH   1   2
BRANCH   1   6
ATOM      6  C   UNL     1       6.833  -1.608   1.324  1.00  0.00     0.047 C 
BRANCH   6   7
ATOM      7  C   UNL     1       6.230  -0.337   0.844  1.00  0.00    -0.047 A 
ATOM      8  C   UNL     1       6.456   0.109  -0.451  1.00  0.00     0.004 A 
ATOM      9  C   UNL     1       5.435   0.463   1.644  1.00  0.00     0.004 A 
ATOM     10  C   UNL     1       5.921   1.286  -0.922  1.00  0.00     0.000 A 
ATOM     11  C   UNL     1       4.900   1.642   1.170  1.00  0.00     0.000 A 
ATOM     12  C   UNL     1       5.129   2.078  -0.115  1.00  0.00     0.000 A 
ENDBRANCH   6   7
ENDBRANCH   1   6
TORSDOF 4
ENDMDL
