@<TRIPOS>MOLECULE
/home/cewinharhar/GITHUB/reincatalyze/data/processed/docking_pred/2023-Apr-25-2248_maxeplen10_maxtrainstep1000_exh16_gamma099_lrac3e-4_lrcr1e-3/1caf15995fa8372ea76f1cb48e36fe3c815c3a18_ligand_2.pdbqt
 12 12 0 0 0
SMALL
GASTEIGER

@<TRIPOS>ATOM
      1  C          8.3040   -1.6850    0.9570 C.3     1  UNL1        0.1270
      2  C          8.6670   -2.9920    0.3820 C.2     1  UNL1        0.3030
      3  O          9.4220   -3.7610    1.0360 O.2     1  UNL1       -0.2520
      4  O          8.1990   -3.4130   -0.8720 O.3     1  UNL1       -0.4810
      5  H          7.8940   -4.3710   -0.9770 H       1  UNL1        0.2960
      6  C          6.8330   -1.6080    1.3240 C.3     1  UNL1        0.0470
      7  C          6.2300   -0.3370    0.8440 C.2     1  UNL1       -0.0470
      8  C          6.4560    0.1090   -0.4510 C.2     1  UNL1        0.0040
      9  C          5.4350    0.4630    1.6440 C.2     1  UNL1        0.0040
     10  C          5.9210    1.2860   -0.9220 C.2     1  UNL1        0.0000
     11  C          4.9000    1.6420    1.1700 C.2     1  UNL1        0.0000
     12  C          5.1290    2.0780   -0.1150 C.2     1  UNL1        0.0000
@<TRIPOS>BOND
     1     5     4    1
     2    10     8    1
     3    10    12    2
     4     4     2    1
     5     8     7    2
     6    12    11    1
     7     2     1    1
     8     2     3    2
     9     7     6    1
    10     7     9    1
    11     1     6    1
    12    11     9    2
