@<TRIPOS>MOLECULE
/home/cewinharhar/GITHUB/reincatalyze/data/processed/docking_pred/2023-Apr-25-2248_maxeplen10_maxtrainstep1000_exh16_gamma099_lrac3e-4_lrcr1e-3/1caf15995fa8372ea76f1cb48e36fe3c815c3a18_ligand_2.pdbqt
 12 12 0 0 0
SMALL
GASTEIGER

@<TRIPOS>ATOM
      1  C          8.3450    0.3260   -1.9070 C.3     1  UNL1        0.1270
      2  C          9.4990    0.2100   -0.9980 C.2     1  UNL1        0.3030
      3  O          9.4100   -0.5390    0.0130 O.2     1  UNL1       -0.2520
      4  O         10.6970    0.9040   -1.2190 O.3     1  UNL1       -0.4810
      5  H         10.8360    1.3580   -2.1120 H       1  UNL1        0.2960
      6  C          7.1690   -0.5190   -1.4510 C.3     1  UNL1        0.0470
      7  C          6.3530    0.2030   -0.4400 C.2     1  UNL1       -0.0470
      8  C          6.1210   -0.3520    0.8100 C.2     1  UNL1        0.0040
      9  C          5.7820    1.4390   -0.6830 C.2     1  UNL1        0.0040
     10  C          5.3630    0.2870    1.7640 C.2     1  UNL1        0.0000
     11  C          5.0230    2.0780    0.2730 C.2     1  UNL1        0.0000
     12  C          4.7960    1.5200    1.5110 C.2     1  UNL1        0.0000
@<TRIPOS>BOND
     1     5     4    1
     2     1     6    1
     3     1     2    1
     4     6     7    1
     5     4     2    1
     6     2     3    2
     7     9     7    2
     8     9    11    1
     9     7     8    1
    10    11    12    2
    11     8    10    2
    12    12    10    1
