@<TRIPOS>MOLECULE
/home/cewinharhar/GITHUB/reincatalyze/data/processed/docking_pred/2023-Apr-25-2248_maxeplen10_maxtrainstep1000_exh16_gamma099_lrac3e-4_lrcr1e-3/1caf15995fa8372ea76f1cb48e36fe3c815c3a18_ligand_2.pdbqt
 12 12 0 0 0
SMALL
GASTEIGER

@<TRIPOS>ATOM
      1  C          5.0010    1.7720    0.7370 C.3     1  UNL1        0.1270
      2  C          4.4630    1.1040    1.9360 C.2     1  UNL1        0.3030
      3  O          5.1400    0.1930    2.4850 O.2     1  UNL1       -0.2520
      4  O          3.2210    1.4490    2.4900 O.3     1  UNL1       -0.4810
      5  H          3.1570    2.2910    3.0450 H       1  UNL1        0.2960
      6  C          6.5140    1.8980    0.7810 C.3     1  UNL1        0.0470
      7  C          7.1450    1.1150   -0.3130 C.2     1  UNL1       -0.0470
      8  C          6.4020    0.2080   -1.0550 C.2     1  UNL1        0.0040
      9  C          8.4820    1.2350   -0.6440 C.2     1  UNL1        0.0040
     10  C          6.9590   -0.5380   -2.0670 C.2     1  UNL1        0.0000
     11  C          9.0390    0.4870   -1.6590 C.2     1  UNL1        0.0000
     12  C          8.2950   -0.4120   -2.3890 C.2     1  UNL1        0.0000
@<TRIPOS>BOND
     1    12    10    2
     2    12    11    1
     3    10     8    1
     4    11     9    2
     5     8     7    2
     6     9     7    1
     7     7     6    1
     8     1     6    1
     9     1     2    1
    10     2     3    2
    11     2     4    1
    12     4     5    1
