@<TRIPOS>MOLECULE
/home/cewinharhar/GITHUB/reincatalyze/data/processed/docking_pred/2023-Apr-25-2248_maxeplen10_maxtrainstep1000_exh16_gamma099_lrac3e-4_lrcr1e-3/1e16add1d5649bf0b13dd0d86c7d3fc630d89625_ligand_2.pdbqt
 12 12 0 0 0
SMALL
GASTEIGER

@<TRIPOS>ATOM
      1  C          5.0020    1.7920    0.7470 C.3     1  UNL1        0.1270
      2  C          4.4630    1.1120    1.9380 C.2     1  UNL1        0.3030
      3  O          5.1410    0.1980    2.4800 O.2     1  UNL1       -0.2520
      4  O          3.2190    1.4480    2.4930 O.3     1  UNL1       -0.4810
      5  H          3.0730    2.3960    2.8140 H       1  UNL1        0.2960
      6  C          6.5150    1.9090    0.7890 C.3     1  UNL1        0.0470
      7  C          7.1400    1.1270   -0.3100 C.2     1  UNL1       -0.0470
      8  C          6.3890    0.2280   -1.0550 C.2     1  UNL1        0.0040
      9  C          8.4780    1.2380   -0.6410 C.2     1  UNL1        0.0040
     10  C          6.9410   -0.5180   -2.0710 C.2     1  UNL1        0.0000
     11  C          9.0290    0.4900   -1.6590 C.2     1  UNL1        0.0000
     12  C          8.2780   -0.4000   -2.3930 C.2     1  UNL1        0.0000
@<TRIPOS>BOND
     1    12    10    2
     2    12    11    1
     3    10     8    1
     4    11     9    2
     5     8     7    2
     6     9     7    1
     7     7     6    1
     8     1     6    1
     9     1     2    1
    10     2     3    2
    11     2     4    1
    12     4     5    1
