@<TRIPOS>MOLECULE
/home/cewinharhar/GITHUB/reincatalyze/data/processed/docking_pred/2023-Apr-25-2248_maxeplen10_maxtrainstep1000_exh16_gamma099_lrac3e-4_lrcr1e-3/1e16add1d5649bf0b13dd0d86c7d3fc630d89625_ligand_2.pdbqt
 12 12 0 0 0
SMALL
GASTEIGER

@<TRIPOS>ATOM
      1  C          8.2030    0.1950   -2.4030 C.3     1  UNL1        0.1270
      2  C          8.1660   -1.2630   -2.6130 C.2     1  UNL1        0.3030
      3  O          7.0550   -1.8600   -2.5700 O.2     1  UNL1       -0.2520
      4  O          9.3250   -2.0130   -2.8600 O.3     1  UNL1       -0.4810
      5  H         10.0380   -1.6180   -3.4580 H       1  UNL1        0.2960
      6  C          8.6440    0.5610   -0.9970 C.3     1  UNL1        0.0470
      7  C          7.4980    0.5220   -0.0520 C.2     1  UNL1       -0.0470
      8  C          7.4790   -0.3820    1.0000 C.2     1  UNL1        0.0040
      9  C          6.4030    1.3590   -0.1680 C.2     1  UNL1        0.0040
     10  C          6.4280   -0.4500    1.8860 C.2     1  UNL1        0.0000
     11  C          5.3510    1.2900    0.7200 C.2     1  UNL1        0.0000
     12  C          5.3390    0.3890    1.7600 C.2     1  UNL1        0.0000
@<TRIPOS>BOND
     1     5     4    1
     2     4     2    1
     3     2     3    2
     4     2     1    1
     5     1     6    1
     6     6     7    1
     7     9     7    2
     8     9    11    1
     9     7     8    1
    10    11    12    2
    11     8    10    2
    12    12    10    1
