MODEL 1
REMARK VINA RESULT:      -6.8      0.000      0.000
REMARK SMILES O=C(O)CCc1ccccc1
REMARK SMILES IDX 4 1 2 2 1 3 3 4 5 6 6 7 7 8 11 9 8 10 10 11 9 12
REMARK H PARENT 3 5
REMARK Flexibility Score: inf
ROOT
ATOM      1  C   UNL     1       5.002   1.792   0.747  1.00  0.00     0.127 C 
ENDROOT
BRANCH   1   2
ATOM      2  C   UNL     1       4.463   1.112   1.938  1.00  0.00     0.303 C 
ATOM      3  O   UNL     1       5.141   0.198   2.480  1.00  0.00    -0.252 OA
BRANCH   2   4
ATOM      4  O   UNL     1       3.219   1.448   2.493  1.00  0.00    -0.481 OA
ATOM      5  H   UNL     1       3.073   2.396   2.814  1.00  0.00     0.296 HD
ENDBRANCH   2   4
ENDBRANCH   1   2
BRANCH   1   6
ATOM      6  C   UNL     1       6.515   1.909   0.789  1.00  0.00     0.047 C 
BRANCH   6   7
ATOM      7  C   UNL     1       7.140   1.127  -0.310  1.00  0.00    -0.047 A 
ATOM      8  C   UNL     1       6.389   0.228  -1.055  1.00  0.00     0.004 A 
ATOM      9  C   UNL     1       8.478   1.238  -0.641  1.00  0.00     0.004 A 
ATOM     10  C   UNL     1       6.941  -0.518  -2.071  1.00  0.00     0.000 A 
ATOM     11  C   UNL     1       9.029   0.490  -1.659  1.00  0.00     0.000 A 
ATOM     12  C   UNL     1       8.278  -0.400  -2.393  1.00  0.00     0.000 A 
ENDBRANCH   6   7
ENDBRANCH   1   6
TORSDOF 4
ENDMDL
MODEL 2
REMARK VINA RESULT:      -6.7      0.083      1.423
REMARK SMILES O=C(O)CCc1ccccc1
REMARK SMILES IDX 4 1 2 2 1 3 3 4 5 6 6 7 7 8 11 9 8 10 10 11 9 12
REMARK H PARENT 3 5
REMARK Flexibility Score: inf
ROOT
ATOM      1  C   UNL     1       4.975   1.738   0.677  1.00  0.00     0.127 C 
ENDROOT
BRANCH   1   2
ATOM      2  C   UNL     1       4.476   1.098   1.907  1.00  0.00     0.303 C 
ATOM      3  O   UNL     1       5.179   0.212   2.465  1.00  0.00    -0.252 OA
BRANCH   2   4
ATOM      4  O   UNL     1       3.244   1.442   2.483  1.00  0.00    -0.481 OA
ATOM      5  H   UNL     1       2.532   0.729   2.561  1.00  0.00     0.296 HD
ENDBRANCH   2   4
ENDBRANCH   1   2
BRANCH   1   6
ATOM      6  C   UNL     1       6.484   1.904   0.688  1.00  0.00     0.047 C 
BRANCH   6   7
ATOM      7  C   UNL     1       7.119   1.076  -0.370  1.00  0.00    -0.047 A 
ATOM      8  C   UNL     1       8.475   1.191  -0.640  1.00  0.00     0.004 A 
ATOM      9  C   UNL     1       6.410   0.169  -1.137  1.00  0.00     0.004 A 
ATOM     10  C   UNL     1       9.090   0.446  -1.620  1.00  0.00     0.000 A 
ATOM     11  C   UNL     1       7.027  -0.577  -2.117  1.00  0.00     0.000 A 
ATOM     12  C   UNL     1       8.373  -0.456  -2.381  1.00  0.00     0.000 A 
ENDBRANCH   6   7
ENDBRANCH   1   6
TORSDOF 4
ENDMDL
MODEL 3
REMARK VINA RESULT:      -6.7      3.357      5.164
REMARK SMILES O=C(O)CCc1ccccc1
REMARK SMILES IDX 4 1 2 2 1 3 3 4 5 6 6 7 7 8 11 9 8 10 10 11 9 12
REMARK H PARENT 3 5
REMARK Flexibility Score: inf
ROOT
ATOM      1  C   UNL     1       8.388  -0.642  -2.113  1.00  0.00     0.127 C 
ENDROOT
BRANCH   1   2
ATOM      2  C   UNL     1       8.431  -1.907  -2.869  1.00  0.00     0.303 C 
ATOM      3  O   UNL     1       7.356  -2.389  -3.318  1.00  0.00    -0.252 OA
BRANCH   2   4
ATOM      4  O   UNL     1       9.630  -2.594  -3.110  1.00  0.00    -0.481 OA
ATOM      5  H   UNL     1      10.470  -2.278  -2.645  1.00  0.00     0.296 HD
ENDBRANCH   2   4
ENDBRANCH   1   2
BRANCH   1   6
ATOM      6  C   UNL     1       7.012  -0.001  -2.145  1.00  0.00     0.047 C 
BRANCH   6   7
ATOM      7  C   UNL     1       6.455   0.130  -0.774  1.00  0.00    -0.047 A 
ATOM      8  C   UNL     1       6.596  -0.896   0.149  1.00  0.00     0.004 A 
ATOM      9  C   UNL     1       5.769   1.253  -0.349  1.00  0.00     0.004 A 
ATOM     10  C   UNL     1       6.082  -0.809   1.423  1.00  0.00     0.000 A 
ATOM     11  C   UNL     1       5.255   1.339   0.927  1.00  0.00     0.000 A 
ATOM     12  C   UNL     1       5.398   0.316   1.836  1.00  0.00     0.000 A 
ENDBRANCH   6   7
ENDBRANCH   1   6
TORSDOF 4
ENDMDL
MODEL 4
REMARK VINA RESULT:      -6.6      3.004      4.791
REMARK SMILES O=C(O)CCc1ccccc1
REMARK SMILES IDX 4 1 2 2 1 3 3 4 5 6 6 7 7 8 11 9 8 10 10 11 9 12
REMARK H PARENT 3 5
REMARK Flexibility Score: inf
ROOT
ATOM      1  C   UNL     1       8.177   0.199  -2.413  1.00  0.00     0.127 C 
ENDROOT
BRANCH   1   2
ATOM      2  C   UNL     1       8.161  -1.261  -2.610  1.00  0.00     0.303 C 
ATOM      3  O   UNL     1       7.058  -1.871  -2.577  1.00  0.00    -0.252 OA
BRANCH   2   4
ATOM      4  O   UNL     1       9.332  -1.998  -2.834  1.00  0.00    -0.481 OA
ATOM      5  H   UNL     1       9.333  -2.693  -3.569  1.00  0.00     0.296 HD
ENDBRANCH   2   4
ENDBRANCH   1   2
BRANCH   1   6
ATOM      6  C   UNL     1       8.627   0.585  -1.015  1.00  0.00     0.047 C 
BRANCH   6   7
ATOM      7  C   UNL     1       7.500   0.499  -0.050  1.00  0.00    -0.047 A 
ATOM      8  C   UNL     1       6.402   1.338  -0.167  1.00  0.00     0.004 A 
ATOM      9  C   UNL     1       7.485  -0.396   1.005  1.00  0.00     0.004 A 
ATOM     10  C   UNL     1       5.348   1.290   0.716  1.00  0.00     0.000 A 
ATOM     11  C   UNL     1       6.428  -0.443   1.889  1.00  0.00     0.000 A 
ATOM     12  C   UNL     1       5.343   0.394   1.766  1.00  0.00     0.000 A 
ENDBRANCH   6   7
ENDBRANCH   1   6
TORSDOF 4
ENDMDL
MODEL 5
REMARK VINA RESULT:      -6.6      3.005      4.831
REMARK SMILES O=C(O)CCc1ccccc1
REMARK SMILES IDX 4 1 2 2 1 3 3 4 5 6 6 7 7 8 11 9 8 10 10 11 9 12
REMARK H PARENT 3 5
REMARK Flexibility Score: inf
ROOT
ATOM      1  C   UNL     1       8.203   0.195  -2.403  1.00  0.00     0.127 C 
ENDROOT
BRANCH   1   2
ATOM      2  C   UNL     1       8.166  -1.263  -2.613  1.00  0.00     0.303 C 
ATOM      3  O   UNL     1       7.055  -1.860  -2.570  1.00  0.00    -0.252 OA
BRANCH   2   4
ATOM      4  O   UNL     1       9.325  -2.013  -2.860  1.00  0.00    -0.481 OA
ATOM      5  H   UNL     1      10.038  -1.618  -3.458  1.00  0.00     0.296 HD
ENDBRANCH   2   4
ENDBRANCH   1   2
BRANCH   1   6
ATOM      6  C   UNL     1       8.644   0.561  -0.997  1.00  0.00     0.047 C 
BRANCH   6   7
ATOM      7  C   UNL     1       7.498   0.522  -0.052  1.00  0.00    -0.047 A 
ATOM      8  C   UNL     1       7.479  -0.382   1.000  1.00  0.00     0.004 A 
ATOM      9  C   UNL     1       6.403   1.359  -0.168  1.00  0.00     0.004 A 
ATOM     10  C   UNL     1       6.428  -0.450   1.886  1.00  0.00     0.000 A 
ATOM     11  C   UNL     1       5.351   1.290   0.720  1.00  0.00     0.000 A 
ATOM     12  C   UNL     1       5.339   0.389   1.760  1.00  0.00     0.000 A 
ENDBRANCH   6   7
ENDBRANCH   1   6
TORSDOF 4
ENDMDL
