@<TRIPOS>MOLECULE
/home/cewinharhar/GITHUB/reincatalyze/data/processed/docking_pred/2023-Apr-25-2248_maxeplen10_maxtrainstep1000_exh16_gamma099_lrac3e-4_lrcr1e-3/1e16add1d5649bf0b13dd0d86c7d3fc630d89625_ligand_2.pdbqt
 12 12 0 0 0
SMALL
GASTEIGER

@<TRIPOS>ATOM
      1  C          4.9750    1.7380    0.6770 C.3     1  UNL1        0.1270
      2  C          4.4760    1.0980    1.9070 C.2     1  UNL1        0.3030
      3  O          5.1790    0.2120    2.4650 O.2     1  UNL1       -0.2520
      4  O          3.2440    1.4420    2.4830 O.3     1  UNL1       -0.4810
      5  H          2.5320    0.7290    2.5610 H       1  UNL1        0.2960
      6  C          6.4840    1.9040    0.6880 C.3     1  UNL1        0.0470
      7  C          7.1190    1.0760   -0.3700 C.2     1  UNL1       -0.0470
      8  C          8.4750    1.1910   -0.6400 C.2     1  UNL1        0.0040
      9  C          6.4100    0.1690   -1.1370 C.2     1  UNL1        0.0040
     10  C          9.0900    0.4460   -1.6200 C.2     1  UNL1        0.0000
     11  C          7.0270   -0.5770   -2.1170 C.2     1  UNL1        0.0000
     12  C          8.3730   -0.4560   -2.3810 C.2     1  UNL1        0.0000
@<TRIPOS>BOND
     1    12    11    2
     2    12    10    1
     3    11     9    1
     4    10     8    2
     5     9     7    2
     6     8     7    1
     7     7     6    1
     8     1     6    1
     9     1     2    1
    10     2     3    2
    11     2     4    1
    12     4     5    1
