@<TRIPOS>MOLECULE
/home/cewinharhar/GITHUB/reincatalyze/data/processed/docking_pred/2023-Apr-25-2248_maxeplen10_maxtrainstep1000_exh16_gamma099_lrac3e-4_lrcr1e-3/1e16add1d5649bf0b13dd0d86c7d3fc630d89625_ligand_2.pdbqt
 12 12 0 0 0
SMALL
GASTEIGER

@<TRIPOS>ATOM
      1  C          8.1770    0.1990   -2.4130 C.3     1  UNL1        0.1270
      2  C          8.1610   -1.2610   -2.6100 C.2     1  UNL1        0.3030
      3  O          7.0580   -1.8710   -2.5770 O.2     1  UNL1       -0.2520
      4  O          9.3320   -1.9980   -2.8340 O.3     1  UNL1       -0.4810
      5  H          9.3330   -2.6930   -3.5690 H       1  UNL1        0.2960
      6  C          8.6270    0.5850   -1.0150 C.3     1  UNL1        0.0470
      7  C          7.5000    0.4990   -0.0500 C.2     1  UNL1       -0.0470
      8  C          6.4020    1.3380   -0.1670 C.2     1  UNL1        0.0040
      9  C          7.4850   -0.3960    1.0050 C.2     1  UNL1        0.0040
     10  C          5.3480    1.2900    0.7160 C.2     1  UNL1        0.0000
     11  C          6.4280   -0.4430    1.8890 C.2     1  UNL1        0.0000
     12  C          5.3430    0.3940    1.7660 C.2     1  UNL1        0.0000
@<TRIPOS>BOND
     1     5     4    1
     2     4     2    1
     3     2     3    2
     4     2     1    1
     5     1     6    1
     6     6     7    1
     7     8     7    2
     8     8    10    1
     9     7     9    1
    10    10    12    2
    11     9    11    2
    12    12    11    1
