@<TRIPOS>MOLECULE
/home/cewinharhar/GITHUB/reincatalyze/data/processed/docking_pred/2023-Apr-25-2248_maxeplen10_maxtrainstep1000_exh16_gamma099_lrac3e-4_lrcr1e-3/1e16add1d5649bf0b13dd0d86c7d3fc630d89625_ligand_2.pdbqt
 12 12 0 0 0
SMALL
GASTEIGER

@<TRIPOS>ATOM
      1  C          8.3880   -0.6420   -2.1130 C.3     1  UNL1        0.1270
      2  C          8.4310   -1.9070   -2.8690 C.2     1  UNL1        0.3030
      3  O          7.3560   -2.3890   -3.3180 O.2     1  UNL1       -0.2520
      4  O          9.6300   -2.5940   -3.1100 O.3     1  UNL1       -0.4810
      5  H         10.4700   -2.2780   -2.6450 H       1  UNL1        0.2960
      6  C          7.0120   -0.0010   -2.1450 C.3     1  UNL1        0.0470
      7  C          6.4550    0.1300   -0.7740 C.2     1  UNL1       -0.0470
      8  C          6.5960   -0.8960    0.1490 C.2     1  UNL1        0.0040
      9  C          5.7690    1.2530   -0.3490 C.2     1  UNL1        0.0040
     10  C          6.0820   -0.8090    1.4230 C.2     1  UNL1        0.0000
     11  C          5.2550    1.3390    0.9270 C.2     1  UNL1        0.0000
     12  C          5.3980    0.3160    1.8360 C.2     1  UNL1        0.0000
@<TRIPOS>BOND
     1     3     2    2
     2     4     2    1
     3     4     5    1
     4     2     1    1
     5     6     1    1
     6     6     7    1
     7     7     9    2
     8     7     8    1
     9     9    11    1
    10     8    10    2
    11    11    12    2
    12    10    12    1
