@<TRIPOS>MOLECULE
/home/cewinharhar/GITHUB/reincatalyze/data/processed/docking_pred/2023-Apr-25-2248_maxeplen10_maxtrainstep1000_exh16_gamma099_lrac3e-4_lrcr1e-3/1e20ac6c45a20644dde897fa0fc5711864bcd284_ligand_2.pdbqt
 12 12 0 0 0
SMALL
GASTEIGER

@<TRIPOS>ATOM
      1  C          5.6630    3.0360   -0.0490 C.3     1  UNL1        0.1270
      2  C          6.3570    3.9820    0.8430 C.2     1  UNL1        0.3030
      3  O          7.2060    4.7750    0.3520 O.2     1  UNL1       -0.2520
      4  O          6.1050    4.0320    2.2210 O.3     1  UNL1       -0.4810
      5  H          5.2260    4.4180    2.5380 H       1  UNL1        0.2960
      6  C          4.8830    1.9870    0.7230 C.3     1  UNL1        0.0470
      7  C          5.6670    0.7310    0.8560 C.2     1  UNL1       -0.0470
      8  C          6.3770    0.2230   -0.2230 C.2     1  UNL1        0.0040
      9  C          5.7270    0.0070    2.0320 C.2     1  UNL1        0.0040
     10  C          7.1040   -0.9420   -0.1340 C.2     1  UNL1        0.0000
     11  C          6.4550   -1.1600    2.1190 C.2     1  UNL1        0.0000
     12  C          7.1560   -1.6590    1.0440 C.2     1  UNL1        0.0000
@<TRIPOS>BOND
     1     8    10    1
     2     8     7    2
     3    10    12    2
     4     1     6    1
     5     1     2    1
     6     3     2    2
     7     6     7    1
     8     2     4    1
     9     7     9    1
    10    12    11    1
    11     9    11    2
    12     4     5    1
