@<TRIPOS>MOLECULE
/home/cewinharhar/GITHUB/reincatalyze/data/processed/docking_pred/2023-Apr-25-2248_maxeplen10_maxtrainstep1000_exh16_gamma099_lrac3e-4_lrcr1e-3/1e20ac6c45a20644dde897fa0fc5711864bcd284_ligand_2.pdbqt
 12 12 0 0 0
SMALL
GASTEIGER

@<TRIPOS>ATOM
      1  C          8.4030   -0.6620   -2.1220 C.3     1  UNL1        0.1270
      2  C          8.4260   -1.9160   -2.8960 C.2     1  UNL1        0.3030
      3  O          9.5270   -2.5050   -3.0750 O.2     1  UNL1       -0.2520
      4  O          7.2630   -2.4800   -3.4400 O.3     1  UNL1       -0.4810
      5  H          7.3550   -3.2820   -4.0490 H       1  UNL1        0.2960
      6  C          7.0250   -0.0240   -2.1050 C.3     1  UNL1        0.0470
      7  C          6.4820    0.0320   -0.7230 C.2     1  UNL1       -0.0470
      8  C          5.8260    1.1660   -0.2650 C.2     1  UNL1        0.0040
      9  C          6.6030   -1.0160    0.1720 C.2     1  UNL1        0.0040
     10  C          5.3210    1.2520    1.0120 C.2     1  UNL1        0.0000
     11  C          6.0960   -0.9280    1.4500 C.2     1  UNL1        0.0000
     12  C          5.4480    0.2010    1.8980 C.2     1  UNL1        0.0000
@<TRIPOS>BOND
     1     5     4    1
     2     4     2    1
     3     3     2    2
     4     2     1    1
     5     1     6    1
     6     6     7    1
     7     7     8    2
     8     7     9    1
     9     8    10    1
    10     9    11    2
    11    10    12    2
    12    11    12    1
