@<TRIPOS>MOLECULE
/home/cewinharhar/GITHUB/reincatalyze/data/processed/docking_pred/2023-Apr-25-2248_maxeplen10_maxtrainstep1000_exh16_gamma099_lrac3e-4_lrcr1e-3/1e20ac6c45a20644dde897fa0fc5711864bcd284_ligand_2.pdbqt
 12 12 0 0 0
SMALL
GASTEIGER

@<TRIPOS>ATOM
      1  C          8.2480   -1.6390    1.0170 C.3     1  UNL1        0.1270
      2  C          8.5350   -2.8740    0.2650 C.2     1  UNL1        0.3030
      3  O          9.1610   -3.8070    0.8360 O.2     1  UNL1       -0.2520
      4  O          8.1340   -3.0480   -1.0680 O.3     1  UNL1       -0.4810
      5  H          7.2150   -3.4270   -1.2500 H       1  UNL1        0.2960
      6  C          6.7780   -1.5170    1.3790 C.3     1  UNL1        0.0470
      7  C          6.2030   -0.2530    0.8480 C.2     1  UNL1       -0.0470
      8  C          6.4520    0.1440   -0.4580 C.2     1  UNL1        0.0040
      9  C          5.4110    0.5860    1.6090 C.2     1  UNL1        0.0040
     10  C          5.9430    1.3130   -0.9760 C.2     1  UNL1        0.0000
     11  C          4.9010    1.7570    1.0890 C.2     1  UNL1        0.0000
     12  C          5.1540    2.1450   -0.2070 C.2     1  UNL1        0.0000
@<TRIPOS>BOND
     1     5     4    1
     2     4     2    1
     3    10     8    1
     4    10    12    2
     5     8     7    2
     6    12    11    1
     7     2     3    2
     8     2     1    1
     9     7     6    1
    10     7     9    1
    11     1     6    1
    12    11     9    2
