@<TRIPOS>MOLECULE
/home/cewinharhar/GITHUB/reincatalyze/data/processed/docking_pred/2023-Apr-25-2248_maxeplen10_maxtrainstep1000_exh16_gamma099_lrac3e-4_lrcr1e-3/1e20ac6c45a20644dde897fa0fc5711864bcd284_ligand_2.pdbqt
 12 12 0 0 0
SMALL
GASTEIGER

@<TRIPOS>ATOM
      1  C          5.0210    1.7690    0.7240 C.3     1  UNL1        0.1270
      2  C          4.4820    1.1050    1.9240 C.2     1  UNL1        0.3030
      3  O          5.1590    0.1960    2.4770 O.2     1  UNL1       -0.2520
      4  O          3.2400    1.4500    2.4750 O.3     1  UNL1       -0.4810
      5  H          2.4150    1.3680    1.8970 H       1  UNL1        0.2960
      6  C          6.5340    1.8860    0.7630 C.3     1  UNL1        0.0470
      7  C          7.1580    1.0910   -0.3270 C.2     1  UNL1       -0.0470
      8  C          6.4090    0.1780   -1.0550 C.2     1  UNL1        0.0040
      9  C          8.4940    1.2040   -0.6650 C.2     1  UNL1        0.0040
     10  C          6.9600   -0.5800   -2.0630 C.2     1  UNL1        0.0000
     11  C          9.0450    0.4450   -1.6750 C.2     1  UNL1        0.0000
     12  C          8.2950   -0.4600   -2.3920 C.2     1  UNL1        0.0000
@<TRIPOS>BOND
     1    12    10    2
     2    12    11    1
     3    10     8    1
     4    11     9    2
     5     8     7    2
     6     9     7    1
     7     7     6    1
     8     1     6    1
     9     1     2    1
    10     5     4    1
    11     2     4    1
    12     2     3    2
