@<TRIPOS>MOLECULE
/home/cewinharhar/GITHUB/reincatalyze/data/processed/docking_pred/2023-Apr-25-2248_maxeplen10_maxtrainstep1000_exh16_gamma099_lrac3e-4_lrcr1e-3/1e20ac6c45a20644dde897fa0fc5711864bcd284_ligand_2.pdbqt
 12 12 0 0 0
SMALL
GASTEIGER

@<TRIPOS>ATOM
      1  C          8.4060   -0.7560   -1.9940 C.3     1  UNL1        0.1270
      2  C          8.4020   -1.9550   -2.8510 C.2     1  UNL1        0.3030
      3  O          7.2980   -2.4230   -3.2430 O.2     1  UNL1       -0.2520
      4  O          9.5850   -2.5960   -3.2470 O.3     1  UNL1       -0.4810
      5  H          9.5520   -3.2260   -4.0370 H       1  UNL1        0.2960
      6  C          7.1000    0.0130   -2.0770 C.3     1  UNL1        0.0470
      7  C          6.4840    0.1630   -0.7320 C.2     1  UNL1       -0.0470
      8  C          6.5880   -0.8490    0.2110 C.2     1  UNL1        0.0040
      9  C          5.7790    1.2910   -0.3540 C.2     1  UNL1        0.0040
     10  C          6.0200   -0.7450    1.4600 C.2     1  UNL1        0.0000
     11  C          5.2110    1.3940    0.8980 C.2     1  UNL1        0.0000
     12  C          5.3170    0.3850    1.8280 C.2     1  UNL1        0.0000
@<TRIPOS>BOND
     1     5     4    1
     2     4     2    1
     3     3     2    2
     4     2     1    1
     5     6     1    1
     6     6     7    1
     7     7     9    2
     8     7     8    1
     9     9    11    1
    10     8    10    2
    11    11    12    2
    12    10    12    1
