@<TRIPOS>MOLECULE
/home/cewinharhar/GITHUB/reincatalyze/data/processed/docking_pred/2023-Apr-25-2248_maxeplen10_maxtrainstep1000_exh16_gamma099_lrac3e-4_lrcr1e-3/1e8ffecbec14ce573bf52adb8829230239be76a8_ligand_2.pdbqt
 12 12 0 0 0
SMALL
GASTEIGER

@<TRIPOS>ATOM
      1  C          8.3920   -0.6420   -2.1370 C.3     1  UNL1        0.1270
      2  C          8.3990   -1.9080   -2.8920 C.2     1  UNL1        0.3030
      3  O          7.3000   -2.4210   -3.2360 O.2     1  UNL1       -0.2520
      4  O          9.5880   -2.5630   -3.2430 O.3     1  UNL1       -0.4810
      5  H          9.8940   -2.5260   -4.2060 H       1  UNL1        0.2960
      6  C          7.0280    0.0240   -2.1460 C.3     1  UNL1        0.0470
      7  C          6.4750    0.1250   -0.7700 C.2     1  UNL1       -0.0470
      8  C          6.6090   -0.9270    0.1250 C.2     1  UNL1        0.0040
      9  C          5.8010    1.2430   -0.3140 C.2     1  UNL1        0.0040
     10  C          6.0990   -0.8690    1.4020 C.2     1  UNL1        0.0000
     11  C          5.2910    1.2990    0.9650 C.2     1  UNL1        0.0000
     12  C          5.4270    0.2510    1.8470 C.2     1  UNL1        0.0000
@<TRIPOS>BOND
     1     5     4    1
     2     4     2    1
     3     3     2    2
     4     2     1    1
     5     6     1    1
     6     6     7    1
     7     7     9    2
     8     7     8    1
     9     9    11    1
    10     8    10    2
    11    11    12    2
    12    10    12    1
