@<TRIPOS>MOLECULE
/home/cewinharhar/GITHUB/reincatalyze/data/processed/docking_pred/2023-Apr-25-2248_maxeplen10_maxtrainstep1000_exh16_gamma099_lrac3e-4_lrcr1e-3/1e8ffecbec14ce573bf52adb8829230239be76a8_ligand_2.pdbqt
 12 12 0 0 0
SMALL
GASTEIGER

@<TRIPOS>ATOM
      1  C          5.0040    1.7810    0.7340 C.3     1  UNL1        0.1270
      2  C          4.4650    1.1000    1.9250 C.2     1  UNL1        0.3030
      3  O          5.1380    0.1770    2.4590 O.2     1  UNL1       -0.2520
      4  O          3.2280    1.4450    2.4880 O.3     1  UNL1       -0.4810
      5  H          2.8280    2.3450    2.2620 H       1  UNL1        0.2960
      6  C          6.5190    1.8730    0.7620 C.3     1  UNL1        0.0470
      7  C          7.1220    1.0600   -0.3260 C.2     1  UNL1       -0.0470
      8  C          8.4550    1.2230   -0.6750 C.2     1  UNL1        0.0040
      9  C          6.4050    0.1210   -1.0440 C.2     1  UNL1        0.0040
     10  C          9.0400    0.4930   -1.6840 C.2     1  UNL1        0.0000
     11  C          6.9920   -0.6100   -2.0540 C.2     1  UNL1        0.0000
     12  C          8.3150   -0.4410   -2.3960 C.2     1  UNL1        0.0000
@<TRIPOS>BOND
     1    12    11    2
     2    12    10    1
     3    11     9    1
     4    10     8    2
     5     9     7    2
     6     8     7    1
     7     7     6    1
     8     1     6    1
     9     1     2    1
    10     2     3    2
    11     2     4    1
    12     5     4    1
