@<TRIPOS>MOLECULE
/home/cewinharhar/GITHUB/reincatalyze/data/processed/docking_pred/2023-Apr-25-2248_maxeplen10_maxtrainstep1000_exh16_gamma099_lrac3e-4_lrcr1e-3/1e8ffecbec14ce573bf52adb8829230239be76a8_ligand_2.pdbqt
 12 12 0 0 0
SMALL
GASTEIGER

@<TRIPOS>ATOM
      1  C          5.0580    1.7140    0.7270 C.3     1  UNL1        0.1270
      2  C          4.6100    0.9590    1.9110 C.2     1  UNL1        0.3030
      3  O          3.5150    1.2670    2.4550 O.2     1  UNL1       -0.2520
      4  O          5.3600   -0.0940    2.4550 O.3     1  UNL1       -0.4810
      5  H          5.0720   -1.0430    2.2600 H       1  UNL1        0.2960
      6  C          6.5640    1.9060    0.7050 C.3     1  UNL1        0.0470
      7  C          7.1890    1.0920   -0.3700 C.2     1  UNL1       -0.0470
      8  C          6.4350    0.1830   -1.0980 C.2     1  UNL1        0.0040
      9  C          8.5300    1.1830   -0.6940 C.2     1  UNL1        0.0040
     10  C          6.9860   -0.5930   -2.0930 C.2     1  UNL1        0.0000
     11  C          9.0810    0.4060   -1.6910 C.2     1  UNL1        0.0000
     12  C          8.3260   -0.4950   -2.4080 C.2     1  UNL1        0.0000
@<TRIPOS>BOND
     1    12    10    2
     2    12    11    1
     3    10     8    1
     4    11     9    2
     5     8     7    2
     6     9     7    1
     7     7     6    1
     8     6     1    1
     9     1     2    1
    10     2     3    2
    11     2     4    1
    12     5     4    1
