MODEL 1
REMARK VINA RESULT:      -7.3      0.000      0.000
REMARK SMILES O=C(O)CCc1ccccc1
REMARK SMILES IDX 4 1 2 2 1 3 3 4 5 6 6 7 7 8 11 9 8 10 10 11 9 12
REMARK H PARENT 3 5
REMARK Flexibility Score: inf
ROOT
ATOM      1  C   UNL     1       8.383  -0.671  -2.096  1.00  0.00     0.127 C 
ENDROOT
BRANCH   1   2
ATOM      2  C   UNL     1       8.390  -1.917  -2.882  1.00  0.00     0.303 C 
ATOM      3  O   UNL     1       7.291  -2.413  -3.253  1.00  0.00    -0.252 OA
BRANCH   2   4
ATOM      4  O   UNL     1       9.578  -2.572  -3.236  1.00  0.00    -0.481 OA
ATOM      5  H   UNL     1      10.073  -2.264  -4.062  1.00  0.00     0.296 HD
ENDBRANCH   2   4
ENDBRANCH   1   2
BRANCH   1   6
ATOM      6  C   UNL     1       7.024   0.004  -2.101  1.00  0.00     0.047 C 
BRANCH   6   7
ATOM      7  C   UNL     1       6.463   0.085  -0.727  1.00  0.00    -0.047 A 
ATOM      8  C   UNL     1       5.790   1.221  -0.303  1.00  0.00     0.004 A 
ATOM      9  C   UNL     1       6.585  -0.941   0.192  1.00  0.00     0.004 A 
ATOM     10  C   UNL     1       5.269   1.331   0.966  1.00  0.00     0.000 A 
ATOM     11  C   UNL     1       6.063  -0.830   1.463  1.00  0.00     0.000 A 
ATOM     12  C   UNL     1       5.397   0.302   1.877  1.00  0.00     0.000 A 
ENDBRANCH   6   7
ENDBRANCH   1   6
TORSDOF 4
ENDMDL
MODEL 2
REMARK VINA RESULT:      -7.3      0.051      1.421
REMARK SMILES O=C(O)CCc1ccccc1
REMARK SMILES IDX 4 1 2 2 1 3 3 4 5 6 6 7 7 8 11 9 8 10 10 11 9 12
REMARK H PARENT 3 5
REMARK Flexibility Score: inf
ROOT
ATOM      1  C   UNL     1       8.392  -0.642  -2.137  1.00  0.00     0.127 C 
ENDROOT
BRANCH   1   2
ATOM      2  C   UNL     1       8.399  -1.908  -2.892  1.00  0.00     0.303 C 
ATOM      3  O   UNL     1       7.300  -2.421  -3.236  1.00  0.00    -0.252 OA
BRANCH   2   4
ATOM      4  O   UNL     1       9.588  -2.563  -3.243  1.00  0.00    -0.481 OA
ATOM      5  H   UNL     1       9.894  -2.526  -4.206  1.00  0.00     0.296 HD
ENDBRANCH   2   4
ENDBRANCH   1   2
BRANCH   1   6
ATOM      6  C   UNL     1       7.028   0.024  -2.146  1.00  0.00     0.047 C 
BRANCH   6   7
ATOM      7  C   UNL     1       6.475   0.125  -0.770  1.00  0.00    -0.047 A 
ATOM      8  C   UNL     1       6.609  -0.927   0.125  1.00  0.00     0.004 A 
ATOM      9  C   UNL     1       5.801   1.243  -0.314  1.00  0.00     0.004 A 
ATOM     10  C   UNL     1       6.099  -0.869   1.402  1.00  0.00     0.000 A 
ATOM     11  C   UNL     1       5.291   1.299   0.965  1.00  0.00     0.000 A 
ATOM     12  C   UNL     1       5.427   0.251   1.847  1.00  0.00     0.000 A 
ENDBRANCH   6   7
ENDBRANCH   1   6
TORSDOF 4
ENDMDL
MODEL 3
REMARK VINA RESULT:      -6.8      3.323      5.154
REMARK SMILES O=C(O)CCc1ccccc1
REMARK SMILES IDX 4 1 2 2 1 3 3 4 5 6 6 7 7 8 11 9 8 10 10 11 9 12
REMARK H PARENT 3 5
REMARK Flexibility Score: inf
ROOT
ATOM      1  C   UNL     1       5.004   1.781   0.734  1.00  0.00     0.127 C 
ENDROOT
BRANCH   1   2
ATOM      2  C   UNL     1       4.465   1.100   1.925  1.00  0.00     0.303 C 
ATOM      3  O   UNL     1       5.138   0.177   2.459  1.00  0.00    -0.252 OA
BRANCH   2   4
ATOM      4  O   UNL     1       3.228   1.445   2.488  1.00  0.00    -0.481 OA
ATOM      5  H   UNL     1       2.828   2.345   2.262  1.00  0.00     0.296 HD
ENDBRANCH   2   4
ENDBRANCH   1   2
BRANCH   1   6
ATOM      6  C   UNL     1       6.519   1.873   0.762  1.00  0.00     0.047 C 
BRANCH   6   7
ATOM      7  C   UNL     1       7.122   1.060  -0.326  1.00  0.00    -0.047 A 
ATOM      8  C   UNL     1       8.455   1.223  -0.675  1.00  0.00     0.004 A 
ATOM      9  C   UNL     1       6.405   0.121  -1.044  1.00  0.00     0.004 A 
ATOM     10  C   UNL     1       9.040   0.493  -1.684  1.00  0.00     0.000 A 
ATOM     11  C   UNL     1       6.992  -0.610  -2.054  1.00  0.00     0.000 A 
ATOM     12  C   UNL     1       8.315  -0.441  -2.396  1.00  0.00     0.000 A 
ENDBRANCH   6   7
ENDBRANCH   1   6
TORSDOF 4
ENDMDL
MODEL 4
REMARK VINA RESULT:      -6.6      1.955      2.622
REMARK SMILES O=C(O)CCc1ccccc1
REMARK SMILES IDX 4 1 2 2 1 3 3 4 5 6 6 7 7 8 11 9 8 10 10 11 9 12
REMARK H PARENT 3 5
REMARK Flexibility Score: inf
ROOT
ATOM      1  C   UNL     1       8.315   0.151  -2.172  1.00  0.00     0.127 C 
ENDROOT
BRANCH   1   2
ATOM      2  C   UNL     1       9.424   0.359  -1.224  1.00  0.00     0.303 C 
ATOM      3  O   UNL     1       9.498  -0.369  -0.197  1.00  0.00    -0.252 OA
BRANCH   2   4
ATOM      4  O   UNL     1      10.405   1.342  -1.424  1.00  0.00    -0.481 OA
ATOM      5  H   UNL     1      10.151   2.312  -1.292  1.00  0.00     0.296 HD
ENDBRANCH   2   4
ENDBRANCH   1   2
BRANCH   1   6
ATOM      6  C   UNL     1       7.168  -0.627  -1.551  1.00  0.00     0.047 C 
BRANCH   6   7
ATOM      7  C   UNL     1       6.377   0.234  -0.633  1.00  0.00    -0.047 A 
ATOM      8  C   UNL     1       6.132  -0.163   0.674  1.00  0.00     0.004 A 
ATOM      9  C   UNL     1       5.841   1.448  -1.021  1.00  0.00     0.004 A 
ATOM     10  C   UNL     1       5.394   0.605   1.545  1.00  0.00     0.000 A 
ATOM     11  C   UNL     1       5.103   2.217  -0.148  1.00  0.00     0.000 A 
ATOM     12  C   UNL     1       4.863   1.816   1.147  1.00  0.00     0.000 A 
ENDBRANCH   6   7
ENDBRANCH   1   6
TORSDOF 4
ENDMDL
MODEL 5
REMARK VINA RESULT:      -6.6      3.233      5.006
REMARK SMILES O=C(O)CCc1ccccc1
REMARK SMILES IDX 4 1 2 2 1 3 3 4 5 6 6 7 7 8 11 9 8 10 10 11 9 12
REMARK H PARENT 3 5
REMARK Flexibility Score: inf
ROOT
ATOM      1  C   UNL     1       5.058   1.714   0.727  1.00  0.00     0.127 C 
ENDROOT
BRANCH   1   2
ATOM      2  C   UNL     1       4.610   0.959   1.911  1.00  0.00     0.303 C 
ATOM      3  O   UNL     1       3.515   1.267   2.455  1.00  0.00    -0.252 OA
BRANCH   2   4
ATOM      4  O   UNL     1       5.360  -0.094   2.455  1.00  0.00    -0.481 OA
ATOM      5  H   UNL     1       5.072  -1.043   2.260  1.00  0.00     0.296 HD
ENDBRANCH   2   4
ENDBRANCH   1   2
BRANCH   1   6
ATOM      6  C   UNL     1       6.564   1.906   0.705  1.00  0.00     0.047 C 
BRANCH   6   7
ATOM      7  C   UNL     1       7.189   1.092  -0.370  1.00  0.00    -0.047 A 
ATOM      8  C   UNL     1       6.435   0.183  -1.098  1.00  0.00     0.004 A 
ATOM      9  C   UNL     1       8.530   1.183  -0.694  1.00  0.00     0.004 A 
ATOM     10  C   UNL     1       6.986  -0.593  -2.093  1.00  0.00     0.000 A 
ATOM     11  C   UNL     1       9.081   0.406  -1.691  1.00  0.00     0.000 A 
ATOM     12  C   UNL     1       8.326  -0.495  -2.408  1.00  0.00     0.000 A 
ENDBRANCH   6   7
ENDBRANCH   1   6
TORSDOF 4
ENDMDL
