@<TRIPOS>MOLECULE
/home/cewinharhar/GITHUB/reincatalyze/data/processed/docking_pred/2023-Apr-25-2248_maxeplen10_maxtrainstep1000_exh16_gamma099_lrac3e-4_lrcr1e-3/1e8ffecbec14ce573bf52adb8829230239be76a8_ligand_2.pdbqt
 12 12 0 0 0
SMALL
GASTEIGER

@<TRIPOS>ATOM
      1  C          8.3150    0.1510   -2.1720 C.3     1  UNL1        0.1270
      2  C          9.4240    0.3590   -1.2240 C.2     1  UNL1        0.3030
      3  O          9.4980   -0.3690   -0.1970 O.2     1  UNL1       -0.2520
      4  O         10.4050    1.3420   -1.4240 O.3     1  UNL1       -0.4810
      5  H         10.1510    2.3120   -1.2920 H       1  UNL1        0.2960
      6  C          7.1680   -0.6270   -1.5510 C.3     1  UNL1        0.0470
      7  C          6.3770    0.2340   -0.6330 C.2     1  UNL1       -0.0470
      8  C          6.1320   -0.1630    0.6740 C.2     1  UNL1        0.0040
      9  C          5.8410    1.4480   -1.0210 C.2     1  UNL1        0.0040
     10  C          5.3940    0.6050    1.5450 C.2     1  UNL1        0.0000
     11  C          5.1030    2.2170   -0.1480 C.2     1  UNL1        0.0000
     12  C          4.8630    1.8160    1.1470 C.2     1  UNL1        0.0000
@<TRIPOS>BOND
     1     1     6    1
     2     1     2    1
     3     6     7    1
     4     4     5    1
     5     4     2    1
     6     2     3    2
     7     9     7    2
     8     9    11    1
     9     7     8    1
    10    11    12    2
    11     8    10    2
    12    12    10    1
