@<TRIPOS>MOLECULE
/home/cewinharhar/GITHUB/reincatalyze/data/processed/docking_pred/2023-Apr-25-2248_maxeplen10_maxtrainstep1000_exh16_gamma099_lrac3e-4_lrcr1e-3/1ec3d4ded79b7f38a98788c4b0a5da992fc20b58_ligand_2.pdbqt
 12 12 0 0 0
SMALL
GASTEIGER

@<TRIPOS>ATOM
      1  C          8.4140   -0.6930   -2.0670 C.3     1  UNL1        0.1270
      2  C          8.4100   -1.9270   -2.8730 C.2     1  UNL1        0.3030
      3  O          7.3060   -2.4240   -3.2260 O.2     1  UNL1       -0.2520
      4  O          9.5930   -2.5690   -3.2640 O.3     1  UNL1       -0.4810
      5  H         10.1000   -3.1100   -2.5760 H       1  UNL1        0.2960
      6  C          7.0790    0.0270   -2.1140 C.3     1  UNL1        0.0470
      7  C          6.4890    0.1460   -0.7550 C.2     1  UNL1       -0.0470
      8  C          6.6070   -0.8900    0.1600 C.2     1  UNL1        0.0040
      9  C          5.7960    1.2660   -0.3350 C.2     1  UNL1        0.0040
     10  C          6.0630   -0.8150    1.4220 C.2     1  UNL1        0.0000
     11  C          5.2520    1.3400    0.9290 C.2     1  UNL1        0.0000
     12  C          5.3720    0.3070    1.8310 C.2     1  UNL1        0.0000
@<TRIPOS>BOND
     1     4     2    1
     2     4     5    1
     3     3     2    2
     4     2     1    1
     5     6     1    1
     6     6     7    1
     7     7     9    2
     8     7     8    1
     9     9    11    1
    10     8    10    2
    11    11    12    2
    12    10    12    1
