@<TRIPOS>MOLECULE
/home/cewinharhar/GITHUB/reincatalyze/data/processed/docking_pred/2023-Apr-25-2248_maxeplen10_maxtrainstep1000_exh16_gamma099_lrac3e-4_lrcr1e-3/1ec3d4ded79b7f38a98788c4b0a5da992fc20b58_ligand_2.pdbqt
 12 12 0 0 0
SMALL
GASTEIGER

@<TRIPOS>ATOM
      1  C          8.2680   -1.6920    1.1970 C.3     1  UNL1        0.1270
      2  C          8.6530   -2.9160    0.4730 C.2     1  UNL1        0.3030
      3  O          9.3840   -3.7650    1.0520 O.2     1  UNL1       -0.2520
      4  O          8.2330   -3.1720   -0.8400 O.3     1  UNL1       -0.4810
      5  H          8.9320   -3.2390   -1.5670 H       1  UNL1        0.2960
      6  C          6.7650   -1.5880    1.3900 C.3     1  UNL1        0.0470
      7  C          6.2420   -0.3200    0.8180 C.2     1  UNL1       -0.0470
      8  C          5.4750    0.5410    1.5900 C.2     1  UNL1        0.0040
      9  C          6.4740    0.0630   -0.4910 C.2     1  UNL1        0.0040
     10  C          4.9670    1.7170    1.0870 C.2     1  UNL1        0.0000
     11  C          5.9640    1.2410   -0.9930 C.2     1  UNL1        0.0000
     12  C          5.2030    2.0900   -0.2210 C.2     1  UNL1        0.0000
@<TRIPOS>BOND
     1     5     4    1
     2    11     9    1
     3    11    12    2
     4     4     2    1
     5     9     7    2
     6    12    10    1
     7     2     3    2
     8     2     1    1
     9     7     6    1
    10     7     8    1
    11    10     8    2
    12     1     6    1
