@<TRIPOS>MOLECULE
/home/cewinharhar/GITHUB/reincatalyze/data/processed/docking_pred/2023-Apr-25-2248_maxeplen10_maxtrainstep1000_exh16_gamma099_lrac3e-4_lrcr1e-3/1ec3d4ded79b7f38a98788c4b0a5da992fc20b58_ligand_2.pdbqt
 12 12 0 0 0
SMALL
GASTEIGER

@<TRIPOS>ATOM
      1  C          8.4080   -0.6960   -2.0670 C.3     1  UNL1        0.1270
      2  C          8.3950   -1.9350   -2.8640 C.2     1  UNL1        0.3030
      3  O          7.2890   -2.4130   -3.2360 O.2     1  UNL1       -0.2520
      4  O          9.5730   -2.6040   -3.2270 O.3     1  UNL1       -0.4810
      5  H         10.3010   -2.0820   -3.6960 H       1  UNL1        0.2960
      6  C          7.0760    0.0300   -2.1140 C.3     1  UNL1        0.0470
      7  C          6.4810    0.1400   -0.7570 C.2     1  UNL1       -0.0470
      8  C          5.7770    1.2760   -0.3820 C.2     1  UNL1        0.0040
      9  C          6.6000   -0.8550    0.1960 C.2     1  UNL1        0.0040
     10  C          5.2230    1.4130    0.8700 C.2     1  UNL1        0.0000
     11  C          6.0450   -0.7170    1.4500 C.2     1  UNL1        0.0000
     12  C          5.3490    0.4130    1.8140 C.2     1  UNL1        0.0000
@<TRIPOS>BOND
     1     5     4    1
     2     3     2    2
     3     4     2    1
     4     2     1    1
     5     6     1    1
     6     6     7    1
     7     7     8    2
     8     7     9    1
     9     8    10    1
    10     9    11    2
    11    10    12    2
    12    11    12    1
