MODEL 1
REMARK VINA RESULT:      -7.3      0.000      0.000
REMARK SMILES O=C(O)CCc1ccccc1
REMARK SMILES IDX 4 1 2 2 1 3 3 4 5 6 6 7 7 8 11 9 8 10 10 11 9 12
REMARK H PARENT 3 5
REMARK Flexibility Score: inf
ROOT
ATOM      1  C   UNL     1       8.408  -0.696  -2.067  1.00  0.00     0.127 C 
ENDROOT
BRANCH   1   2
ATOM      2  C   UNL     1       8.395  -1.935  -2.864  1.00  0.00     0.303 C 
ATOM      3  O   UNL     1       7.289  -2.413  -3.236  1.00  0.00    -0.252 OA
BRANCH   2   4
ATOM      4  O   UNL     1       9.573  -2.604  -3.227  1.00  0.00    -0.481 OA
ATOM      5  H   UNL     1      10.301  -2.082  -3.696  1.00  0.00     0.296 HD
ENDBRANCH   2   4
ENDBRANCH   1   2
BRANCH   1   6
ATOM      6  C   UNL     1       7.076   0.030  -2.114  1.00  0.00     0.047 C 
BRANCH   6   7
ATOM      7  C   UNL     1       6.481   0.140  -0.757  1.00  0.00    -0.047 A 
ATOM      8  C   UNL     1       5.777   1.276  -0.382  1.00  0.00     0.004 A 
ATOM      9  C   UNL     1       6.600  -0.855   0.196  1.00  0.00     0.004 A 
ATOM     10  C   UNL     1       5.223   1.413   0.870  1.00  0.00     0.000 A 
ATOM     11  C   UNL     1       6.045  -0.717   1.450  1.00  0.00     0.000 A 
ATOM     12  C   UNL     1       5.349   0.413   1.814  1.00  0.00     0.000 A 
ENDBRANCH   6   7
ENDBRANCH   1   6
TORSDOF 4
ENDMDL
MODEL 2
REMARK VINA RESULT:      -7.3      0.061      1.421
REMARK SMILES O=C(O)CCc1ccccc1
REMARK SMILES IDX 4 1 2 2 1 3 3 4 5 6 6 7 7 8 11 9 8 10 10 11 9 12
REMARK H PARENT 3 5
REMARK Flexibility Score: inf
ROOT
ATOM      1  C   UNL     1       8.414  -0.693  -2.067  1.00  0.00     0.127 C 
ENDROOT
BRANCH   1   2
ATOM      2  C   UNL     1       8.410  -1.927  -2.873  1.00  0.00     0.303 C 
ATOM      3  O   UNL     1       7.306  -2.424  -3.226  1.00  0.00    -0.252 OA
BRANCH   2   4
ATOM      4  O   UNL     1       9.593  -2.569  -3.264  1.00  0.00    -0.481 OA
ATOM      5  H   UNL     1      10.100  -3.110  -2.576  1.00  0.00     0.296 HD
ENDBRANCH   2   4
ENDBRANCH   1   2
BRANCH   1   6
ATOM      6  C   UNL     1       7.079   0.027  -2.114  1.00  0.00     0.047 C 
BRANCH   6   7
ATOM      7  C   UNL     1       6.489   0.146  -0.755  1.00  0.00    -0.047 A 
ATOM      8  C   UNL     1       6.607  -0.890   0.160  1.00  0.00     0.004 A 
ATOM      9  C   UNL     1       5.796   1.266  -0.335  1.00  0.00     0.004 A 
ATOM     10  C   UNL     1       6.063  -0.815   1.422  1.00  0.00     0.000 A 
ATOM     11  C   UNL     1       5.252   1.340   0.929  1.00  0.00     0.000 A 
ATOM     12  C   UNL     1       5.372   0.307   1.831  1.00  0.00     0.000 A 
ENDBRANCH   6   7
ENDBRANCH   1   6
TORSDOF 4
ENDMDL
MODEL 3
REMARK VINA RESULT:      -6.8      3.312      5.163
REMARK SMILES O=C(O)CCc1ccccc1
REMARK SMILES IDX 4 1 2 2 1 3 3 4 5 6 6 7 7 8 11 9 8 10 10 11 9 12
REMARK H PARENT 3 5
REMARK Flexibility Score: inf
ROOT
ATOM      1  C   UNL     1       5.040   1.794   0.713  1.00  0.00     0.127 C 
ENDROOT
BRANCH   1   2
ATOM      2  C   UNL     1       4.490   1.131   1.909  1.00  0.00     0.303 C 
ATOM      3  O   UNL     1       5.162   0.222   2.469  1.00  0.00    -0.252 OA
BRANCH   2   4
ATOM      4  O   UNL     1       3.242   1.476   2.448  1.00  0.00    -0.481 OA
ATOM      5  H   UNL     1       3.170   1.620   3.446  1.00  0.00     0.296 HD
ENDBRANCH   2   4
ENDBRANCH   1   2
BRANCH   1   6
ATOM      6  C   UNL     1       6.555   1.889   0.757  1.00  0.00     0.047 C 
BRANCH   6   7
ATOM      7  C   UNL     1       7.170   1.100  -0.342  1.00  0.00    -0.047 A 
ATOM      8  C   UNL     1       6.413   0.196  -1.074  1.00  0.00     0.004 A 
ATOM      9  C   UNL     1       8.505   1.208  -0.685  1.00  0.00     0.004 A 
ATOM     10  C   UNL     1       6.955  -0.557  -2.090  1.00  0.00     0.000 A 
ATOM     11  C   UNL     1       9.047   0.453  -1.703  1.00  0.00     0.000 A 
ATOM     12  C   UNL     1       8.290  -0.442  -2.424  1.00  0.00     0.000 A 
ENDBRANCH   6   7
ENDBRANCH   1   6
TORSDOF 4
ENDMDL
MODEL 4
REMARK VINA RESULT:      -6.7      0.886      1.434
REMARK SMILES O=C(O)CCc1ccccc1
REMARK SMILES IDX 4 1 2 2 1 3 3 4 5 6 6 7 7 8 11 9 8 10 10 11 9 12
REMARK H PARENT 3 5
REMARK Flexibility Score: inf
ROOT
ATOM      1  C   UNL     1       8.336  -0.971  -1.580  1.00  0.00     0.127 C 
ENDROOT
BRANCH   1   2
ATOM      2  C   UNL     1       8.491  -1.913  -2.703  1.00  0.00     0.303 C 
ATOM      3  O   UNL     1       8.823  -3.105  -2.462  1.00  0.00    -0.252 OA
BRANCH   2   4
ATOM      4  O   UNL     1       8.279  -1.529  -4.036  1.00  0.00    -0.481 OA
ATOM      5  H   UNL     1       7.428  -1.824  -4.494  1.00  0.00     0.296 HD
ENDBRANCH   2   4
ENDBRANCH   1   2
BRANCH   1   6
ATOM      6  C   UNL     1       7.347  -1.473  -0.543  1.00  0.00     0.047 C 
BRANCH   6   7
ATOM      7  C   UNL     1       6.511  -0.359  -0.022  1.00  0.00    -0.047 A 
ATOM      8  C   UNL     1       6.223   0.741  -0.816  1.00  0.00     0.004 A 
ATOM      9  C   UNL     1       5.992  -0.350   1.260  1.00  0.00     0.004 A 
ATOM     10  C   UNL     1       5.462   1.793  -0.359  1.00  0.00     0.000 A 
ATOM     11  C   UNL     1       5.230   0.704   1.716  1.00  0.00     0.000 A 
ATOM     12  C   UNL     1       4.949   1.793   0.922  1.00  0.00     0.000 A 
ENDBRANCH   6   7
ENDBRANCH   1   6
TORSDOF 4
ENDMDL
MODEL 5
REMARK VINA RESULT:      -6.5      1.991      2.967
REMARK SMILES O=C(O)CCc1ccccc1
REMARK SMILES IDX 4 1 2 2 1 3 3 4 5 6 6 7 7 8 11 9 8 10 10 11 9 12
REMARK H PARENT 3 5
REMARK Flexibility Score: inf
ROOT
ATOM      1  C   UNL     1       8.268  -1.692   1.197  1.00  0.00     0.127 C 
ENDROOT
BRANCH   1   2
ATOM      2  C   UNL     1       8.653  -2.916   0.473  1.00  0.00     0.303 C 
ATOM      3  O   UNL     1       9.384  -3.765   1.052  1.00  0.00    -0.252 OA
BRANCH   2   4
ATOM      4  O   UNL     1       8.233  -3.172  -0.840  1.00  0.00    -0.481 OA
ATOM      5  H   UNL     1       8.932  -3.239  -1.567  1.00  0.00     0.296 HD
ENDBRANCH   2   4
ENDBRANCH   1   2
BRANCH   1   6
ATOM      6  C   UNL     1       6.765  -1.588   1.390  1.00  0.00     0.047 C 
BRANCH   6   7
ATOM      7  C   UNL     1       6.242  -0.320   0.818  1.00  0.00    -0.047 A 
ATOM      8  C   UNL     1       5.475   0.541   1.590  1.00  0.00     0.004 A 
ATOM      9  C   UNL     1       6.474   0.063  -0.491  1.00  0.00     0.004 A 
ATOM     10  C   UNL     1       4.967   1.717   1.087  1.00  0.00     0.000 A 
ATOM     11  C   UNL     1       5.964   1.241  -0.993  1.00  0.00     0.000 A 
ATOM     12  C   UNL     1       5.203   2.090  -0.221  1.00  0.00     0.000 A 
ENDBRANCH   6   7
ENDBRANCH   1   6
TORSDOF 4
ENDMDL
