@<TRIPOS>MOLECULE
/home/cewinharhar/GITHUB/reincatalyze/data/processed/docking_pred/2023-Apr-25-2248_maxeplen10_maxtrainstep1000_exh16_gamma099_lrac3e-4_lrcr1e-3/1ec3d4ded79b7f38a98788c4b0a5da992fc20b58_ligand_2.pdbqt
 12 12 0 0 0
SMALL
GASTEIGER

@<TRIPOS>ATOM
      1  C          5.0400    1.7940    0.7130 C.3     1  UNL1        0.1270
      2  C          4.4900    1.1310    1.9090 C.2     1  UNL1        0.3030
      3  O          5.1620    0.2220    2.4690 O.2     1  UNL1       -0.2520
      4  O          3.2420    1.4760    2.4480 O.3     1  UNL1       -0.4810
      5  H          3.1700    1.6200    3.4460 H       1  UNL1        0.2960
      6  C          6.5550    1.8890    0.7570 C.3     1  UNL1        0.0470
      7  C          7.1700    1.1000   -0.3420 C.2     1  UNL1       -0.0470
      8  C          6.4130    0.1960   -1.0740 C.2     1  UNL1        0.0040
      9  C          8.5050    1.2080   -0.6850 C.2     1  UNL1        0.0040
     10  C          6.9550   -0.5570   -2.0900 C.2     1  UNL1        0.0000
     11  C          9.0470    0.4530   -1.7030 C.2     1  UNL1        0.0000
     12  C          8.2900   -0.4420   -2.4240 C.2     1  UNL1        0.0000
@<TRIPOS>BOND
     1    12    10    2
     2    12    11    1
     3    10     8    1
     4    11     9    2
     5     8     7    2
     6     9     7    1
     7     7     6    1
     8     1     6    1
     9     1     2    1
    10     2     4    1
    11     2     3    2
    12     4     5    1
