@<TRIPOS>MOLECULE
/home/cewinharhar/GITHUB/reincatalyze/data/processed/docking_pred/2023-Apr-25-2248_maxeplen10_maxtrainstep1000_exh16_gamma099_lrac3e-4_lrcr1e-3/1ec3d4ded79b7f38a98788c4b0a5da992fc20b58_ligand_2.pdbqt
 12 12 0 0 0
SMALL
GASTEIGER

@<TRIPOS>ATOM
      1  C          8.3360   -0.9710   -1.5800 C.3     1  UNL1        0.1270
      2  C          8.4910   -1.9130   -2.7030 C.2     1  UNL1        0.3030
      3  O          8.8230   -3.1050   -2.4620 O.2     1  UNL1       -0.2520
      4  O          8.2790   -1.5290   -4.0360 O.3     1  UNL1       -0.4810
      5  H          7.4280   -1.8240   -4.4940 H       1  UNL1        0.2960
      6  C          7.3470   -1.4730   -0.5430 C.3     1  UNL1        0.0470
      7  C          6.5110   -0.3590   -0.0220 C.2     1  UNL1       -0.0470
      8  C          6.2230    0.7410   -0.8160 C.2     1  UNL1        0.0040
      9  C          5.9920   -0.3500    1.2600 C.2     1  UNL1        0.0040
     10  C          5.4620    1.7930   -0.3590 C.2     1  UNL1        0.0000
     11  C          5.2300    0.7040    1.7160 C.2     1  UNL1        0.0000
     12  C          4.9490    1.7930    0.9220 C.2     1  UNL1        0.0000
@<TRIPOS>BOND
     1     5     4    1
     2     4     2    1
     3     2     3    2
     4     2     1    1
     5     1     6    1
     6     8    10    1
     7     8     7    2
     8     6     7    1
     9    10    12    2
    10     7     9    1
    11    12    11    1
    12     9    11    2
