@<TRIPOS>MOLECULE
/home/cewinharhar/GITHUB/reincatalyze/data/processed/docking_pred/2023-Apr-25-2248_maxeplen10_maxtrainstep1000_exh16_gamma099_lrac3e-4_lrcr1e-3/1f3204452a604bf2b5a1468570937d609aafa137_ligand_2.pdbqt
 12 12 0 0 0
SMALL
GASTEIGER

@<TRIPOS>ATOM
      1  C          5.0460    1.6950    0.7120 C.3     1  UNL1        0.1270
      2  C          4.4820    1.0770    1.9250 C.2     1  UNL1        0.3030
      3  O          5.1310    0.1650    2.5060 O.2     1  UNL1       -0.2520
      4  O          3.2460    1.4690    2.4580 O.3     1  UNL1       -0.4810
      5  H          3.2380    2.0210    3.3050 H       1  UNL1        0.2960
      6  C          6.5620    1.7720    0.7590 C.3     1  UNL1        0.0470
      7  C          7.1710    0.9710   -0.3340 C.2     1  UNL1       -0.0470
      8  C          8.4800    1.1970   -0.7320 C.2     1  UNL1        0.0040
      9  C          6.4800   -0.0170   -1.0110 C.2     1  UNL1        0.0040
     10  C          9.0690    0.4790   -1.7480 C.2     1  UNL1        0.0000
     11  C          7.0710   -0.7350   -2.0290 C.2     1  UNL1        0.0000
     12  C          8.3710   -0.5040   -2.4190 C.2     1  UNL1        0.0000
@<TRIPOS>BOND
     1    12    11    2
     2    12    10    1
     3    11     9    1
     4    10     8    2
     5     9     7    2
     6     8     7    1
     7     7     6    1
     8     1     6    1
     9     1     2    1
    10     2     4    1
    11     2     3    2
    12     4     5    1
