@<TRIPOS>MOLECULE
/home/cewinharhar/GITHUB/reincatalyze/data/processed/docking_pred/2023-Apr-25-2248_maxeplen10_maxtrainstep1000_exh16_gamma099_lrac3e-4_lrcr1e-3/1f3204452a604bf2b5a1468570937d609aafa137_ligand_2.pdbqt
 12 12 0 0 0
SMALL
GASTEIGER

@<TRIPOS>ATOM
      1  C          8.3800   -0.6270   -2.1600 C.3     1  UNL1        0.1270
      2  C          8.3980   -1.8950   -2.9100 C.2     1  UNL1        0.3030
      3  O          7.3030   -2.4210   -3.2500 O.2     1  UNL1       -0.2520
      4  O          9.5920   -2.5400   -3.2610 O.3     1  UNL1       -0.4810
      5  H          9.7150   -3.5080   -2.9960 H       1  UNL1        0.2960
      6  C          7.0040    0.0140   -2.1480 C.3     1  UNL1        0.0470
      7  C          6.4710    0.1060   -0.7640 C.2     1  UNL1       -0.0470
      8  C          6.5910   -0.9620    0.1130 C.2     1  UNL1        0.0040
      9  C          5.8300    1.2330   -0.2830 C.2     1  UNL1        0.0040
     10  C          6.0990   -0.9110    1.3970 C.2     1  UNL1        0.0000
     11  C          5.3370    1.2820    1.0040 C.2     1  UNL1        0.0000
     12  C          5.4590    0.2180    1.8680 C.2     1  UNL1        0.0000
@<TRIPOS>BOND
     1     4     5    1
     2     4     2    1
     3     3     2    2
     4     2     1    1
     5     1     6    1
     6     6     7    1
     7     7     9    2
     8     7     8    1
     9     9    11    1
    10     8    10    2
    11    11    12    2
    12    10    12    1
