MODEL 1
REMARK VINA RESULT:      -7.3      0.000      0.000
REMARK SMILES O=C(O)CCc1ccccc1
REMARK SMILES IDX 4 1 2 2 1 3 3 4 5 6 6 7 7 8 11 9 8 10 10 11 9 12
REMARK H PARENT 3 5
REMARK Flexibility Score: inf
ROOT
ATOM      1  C   UNL     1       8.391  -0.668  -2.108  1.00  0.00     0.127 C 
ENDROOT
BRANCH   1   2
ATOM      2  C   UNL     1       8.417  -1.915  -2.893  1.00  0.00     0.303 C 
ATOM      3  O   UNL     1       9.518  -2.502  -3.074  1.00  0.00    -0.252 OA
BRANCH   2   4
ATOM      4  O   UNL     1       7.256  -2.474  -3.447  1.00  0.00    -0.481 OA
ATOM      5  H   UNL     1       6.378  -1.987  -3.323  1.00  0.00     0.296 HD
ENDBRANCH   2   4
ENDBRANCH   1   2
BRANCH   1   6
ATOM      6  C   UNL     1       7.014  -0.028  -2.092  1.00  0.00     0.047 C 
BRANCH   6   7
ATOM      7  C   UNL     1       6.471   0.033  -0.710  1.00  0.00    -0.047 A 
ATOM      8  C   UNL     1       5.818   1.170  -0.256  1.00  0.00     0.004 A 
ATOM      9  C   UNL     1       6.590  -1.012   0.188  1.00  0.00     0.004 A 
ATOM     10  C   UNL     1       5.313   1.262   1.021  1.00  0.00     0.000 A 
ATOM     11  C   UNL     1       6.084  -0.919   1.466  1.00  0.00     0.000 A 
ATOM     12  C   UNL     1       5.438   0.213   1.910  1.00  0.00     0.000 A 
ENDBRANCH   6   7
ENDBRANCH   1   6
TORSDOF 4
ENDMDL
MODEL 2
REMARK VINA RESULT:      -7.2      0.107      1.724
REMARK SMILES O=C(O)CCc1ccccc1
REMARK SMILES IDX 4 1 2 2 1 3 3 4 5 6 6 7 7 8 11 9 8 10 10 11 9 12
REMARK H PARENT 3 5
REMARK Flexibility Score: inf
ROOT
ATOM      1  C   UNL     1       8.380  -0.627  -2.160  1.00  0.00     0.127 C 
ENDROOT
BRANCH   1   2
ATOM      2  C   UNL     1       8.398  -1.895  -2.910  1.00  0.00     0.303 C 
ATOM      3  O   UNL     1       7.303  -2.421  -3.250  1.00  0.00    -0.252 OA
BRANCH   2   4
ATOM      4  O   UNL     1       9.592  -2.540  -3.261  1.00  0.00    -0.481 OA
ATOM      5  H   UNL     1       9.715  -3.508  -2.996  1.00  0.00     0.296 HD
ENDBRANCH   2   4
ENDBRANCH   1   2
BRANCH   1   6
ATOM      6  C   UNL     1       7.004   0.014  -2.148  1.00  0.00     0.047 C 
BRANCH   6   7
ATOM      7  C   UNL     1       6.471   0.106  -0.764  1.00  0.00    -0.047 A 
ATOM      8  C   UNL     1       6.591  -0.962   0.113  1.00  0.00     0.004 A 
ATOM      9  C   UNL     1       5.830   1.233  -0.283  1.00  0.00     0.004 A 
ATOM     10  C   UNL     1       6.099  -0.911   1.397  1.00  0.00     0.000 A 
ATOM     11  C   UNL     1       5.337   1.282   1.004  1.00  0.00     0.000 A 
ATOM     12  C   UNL     1       5.459   0.218   1.868  1.00  0.00     0.000 A 
ENDBRANCH   6   7
ENDBRANCH   1   6
TORSDOF 4
ENDMDL
MODEL 3
REMARK VINA RESULT:      -6.8      3.394      5.069
REMARK SMILES O=C(O)CCc1ccccc1
REMARK SMILES IDX 4 1 2 2 1 3 3 4 5 6 6 7 7 8 11 9 8 10 10 11 9 12
REMARK H PARENT 3 5
REMARK Flexibility Score: inf
ROOT
ATOM      1  C   UNL     1       5.046   1.695   0.712  1.00  0.00     0.127 C 
ENDROOT
BRANCH   1   2
ATOM      2  C   UNL     1       4.482   1.077   1.925  1.00  0.00     0.303 C 
ATOM      3  O   UNL     1       5.131   0.165   2.506  1.00  0.00    -0.252 OA
BRANCH   2   4
ATOM      4  O   UNL     1       3.246   1.469   2.458  1.00  0.00    -0.481 OA
ATOM      5  H   UNL     1       3.238   2.021   3.305  1.00  0.00     0.296 HD
ENDBRANCH   2   4
ENDBRANCH   1   2
BRANCH   1   6
ATOM      6  C   UNL     1       6.562   1.772   0.759  1.00  0.00     0.047 C 
BRANCH   6   7
ATOM      7  C   UNL     1       7.171   0.971  -0.334  1.00  0.00    -0.047 A 
ATOM      8  C   UNL     1       8.480   1.197  -0.732  1.00  0.00     0.004 A 
ATOM      9  C   UNL     1       6.480  -0.017  -1.011  1.00  0.00     0.004 A 
ATOM     10  C   UNL     1       9.069   0.479  -1.748  1.00  0.00     0.000 A 
ATOM     11  C   UNL     1       7.071  -0.735  -2.029  1.00  0.00     0.000 A 
ATOM     12  C   UNL     1       8.371  -0.504  -2.419  1.00  0.00     0.000 A 
ENDBRANCH   6   7
ENDBRANCH   1   6
TORSDOF 4
ENDMDL
MODEL 4
REMARK VINA RESULT:      -6.6      1.876      2.895
REMARK SMILES O=C(O)CCc1ccccc1
REMARK SMILES IDX 4 1 2 2 1 3 3 4 5 6 6 7 7 8 11 9 8 10 10 11 9 12
REMARK H PARENT 3 5
REMARK Flexibility Score: inf
ROOT
ATOM      1  C   UNL     1       8.213  -1.663   1.085  1.00  0.00     0.127 C 
ENDROOT
BRANCH   1   2
ATOM      2  C   UNL     1       8.529  -2.865   0.294  1.00  0.00     0.303 C 
ATOM      3  O   UNL     1       9.196  -3.792   0.829  1.00  0.00    -0.252 OA
BRANCH   2   4
ATOM      4  O   UNL     1       8.112  -3.017  -1.037  1.00  0.00    -0.481 OA
ATOM      5  H   UNL     1       7.664  -2.234  -1.495  1.00  0.00     0.296 HD
ENDBRANCH   2   4
ENDBRANCH   1   2
BRANCH   1   6
ATOM      6  C   UNL     1       6.729  -1.544   1.381  1.00  0.00     0.047 C 
BRANCH   6   7
ATOM      7  C   UNL     1       6.178  -0.273   0.843  1.00  0.00    -0.047 A 
ATOM      8  C   UNL     1       6.430   0.109  -0.467  1.00  0.00     0.004 A 
ATOM      9  C   UNL     1       5.408   0.589   1.602  1.00  0.00     0.004 A 
ATOM     10  C   UNL     1       5.943   1.284  -0.992  1.00  0.00     0.000 A 
ATOM     11  C   UNL     1       4.921   1.766   1.075  1.00  0.00     0.000 A 
ATOM     12  C   UNL     1       5.176   2.139  -0.226  1.00  0.00     0.000 A 
ENDBRANCH   6   7
ENDBRANCH   1   6
TORSDOF 4
ENDMDL
MODEL 5
REMARK VINA RESULT:      -6.5      2.069      2.408
REMARK SMILES O=C(O)CCc1ccccc1
REMARK SMILES IDX 4 1 2 2 1 3 3 4 5 6 6 7 7 8 11 9 8 10 10 11 9 12
REMARK H PARENT 3 5
REMARK Flexibility Score: inf
ROOT
ATOM      1  C   UNL     1       8.513   0.673  -1.659  1.00  0.00     0.127 C 
ENDROOT
BRANCH   1   2
ATOM      2  C   UNL     1       9.665   0.293  -0.822  1.00  0.00     0.303 C 
ATOM      3  O   UNL     1       9.490  -0.515   0.130  1.00  0.00    -0.252 OA
BRANCH   2   4
ATOM      4  O   UNL     1      10.954   0.797  -1.049  1.00  0.00    -0.481 OA
ATOM      5  H   UNL     1      11.325   1.482  -0.405  1.00  0.00     0.296 HD
ENDBRANCH   2   4
ENDBRANCH   1   2
BRANCH   1   6
ATOM      6  C   UNL     1       7.320  -0.240  -1.442  1.00  0.00     0.047 C 
BRANCH   6   7
ATOM      7  C   UNL     1       6.425   0.296  -0.383  1.00  0.00    -0.047 A 
ATOM      8  C   UNL     1       5.790   1.520  -0.545  1.00  0.00     0.004 A 
ATOM      9  C   UNL     1       6.185  -0.372   0.803  1.00  0.00     0.004 A 
ATOM     10  C   UNL     1       4.964   2.048   0.420  1.00  0.00     0.000 A 
ATOM     11  C   UNL     1       5.357   0.158   1.769  1.00  0.00     0.000 A 
ATOM     12  C   UNL     1       4.732   1.373   1.602  1.00  0.00     0.000 A 
ENDBRANCH   6   7
ENDBRANCH   1   6
TORSDOF 4
ENDMDL
