@<TRIPOS>MOLECULE
/home/cewinharhar/GITHUB/reincatalyze/data/processed/docking_pred/2023-Apr-25-2248_maxeplen10_maxtrainstep1000_exh16_gamma099_lrac3e-4_lrcr1e-3/1f3204452a604bf2b5a1468570937d609aafa137_ligand_2.pdbqt
 12 12 0 0 0
SMALL
GASTEIGER

@<TRIPOS>ATOM
      1  C          8.5130    0.6730   -1.6590 C.3     1  UNL1        0.1270
      2  C          9.6650    0.2930   -0.8220 C.2     1  UNL1        0.3030
      3  O          9.4900   -0.5150    0.1300 O.2     1  UNL1       -0.2520
      4  O         10.9540    0.7970   -1.0490 O.3     1  UNL1       -0.4810
      5  H         11.3250    1.4820   -0.4050 H       1  UNL1        0.2960
      6  C          7.3200   -0.2400   -1.4420 C.3     1  UNL1        0.0470
      7  C          6.4250    0.2960   -0.3830 C.2     1  UNL1       -0.0470
      8  C          5.7900    1.5200   -0.5450 C.2     1  UNL1        0.0040
      9  C          6.1850   -0.3720    0.8030 C.2     1  UNL1        0.0040
     10  C          4.9640    2.0480    0.4200 C.2     1  UNL1        0.0000
     11  C          5.3570    0.1580    1.7690 C.2     1  UNL1        0.0000
     12  C          4.7320    1.3730    1.6020 C.2     1  UNL1        0.0000
@<TRIPOS>BOND
     1     1     6    1
     2     1     2    1
     3     6     7    1
     4     4     2    1
     5     4     5    1
     6     2     3    2
     7     8     7    2
     8     8    10    1
     9     7     9    1
    10    10    12    2
    11     9    11    2
    12    12    11    1
