@<TRIPOS>MOLECULE
/home/cewinharhar/GITHUB/reincatalyze/data/processed/docking_pred/2023-Apr-25-2248_maxeplen10_maxtrainstep1000_exh16_gamma099_lrac3e-4_lrcr1e-3/1f3204452a604bf2b5a1468570937d609aafa137_ligand_2.pdbqt
 12 12 0 0 0
SMALL
GASTEIGER

@<TRIPOS>ATOM
      1  C          8.3910   -0.6680   -2.1080 C.3     1  UNL1        0.1270
      2  C          8.4170   -1.9150   -2.8930 C.2     1  UNL1        0.3030
      3  O          9.5180   -2.5020   -3.0740 O.2     1  UNL1       -0.2520
      4  O          7.2560   -2.4740   -3.4470 O.3     1  UNL1       -0.4810
      5  H          6.3780   -1.9870   -3.3230 H       1  UNL1        0.2960
      6  C          7.0140   -0.0280   -2.0920 C.3     1  UNL1        0.0470
      7  C          6.4710    0.0330   -0.7100 C.2     1  UNL1       -0.0470
      8  C          5.8180    1.1700   -0.2560 C.2     1  UNL1        0.0040
      9  C          6.5900   -1.0120    0.1880 C.2     1  UNL1        0.0040
     10  C          5.3130    1.2620    1.0210 C.2     1  UNL1        0.0000
     11  C          6.0840   -0.9190    1.4660 C.2     1  UNL1        0.0000
     12  C          5.4380    0.2130    1.9100 C.2     1  UNL1        0.0000
@<TRIPOS>BOND
     1     4     5    1
     2     4     2    1
     3     3     2    2
     4     2     1    1
     5     1     6    1
     6     6     7    1
     7     7     8    2
     8     7     9    1
     9     8    10    1
    10     9    11    2
    11    10    12    2
    12    11    12    1
