@<TRIPOS>MOLECULE
/home/cewinharhar/GITHUB/reincatalyze/data/processed/docking_pred/2023-Apr-25-2248_maxeplen10_maxtrainstep1000_exh16_gamma099_lrac3e-4_lrcr1e-3/1f3204452a604bf2b5a1468570937d609aafa137_ligand_2.pdbqt
 12 12 0 0 0
SMALL
GASTEIGER

@<TRIPOS>ATOM
      1  C          8.2130   -1.6630    1.0850 C.3     1  UNL1        0.1270
      2  C          8.5290   -2.8650    0.2940 C.2     1  UNL1        0.3030
      3  O          9.1960   -3.7920    0.8290 O.2     1  UNL1       -0.2520
      4  O          8.1120   -3.0170   -1.0370 O.3     1  UNL1       -0.4810
      5  H          7.6640   -2.2340   -1.4950 H       1  UNL1        0.2960
      6  C          6.7290   -1.5440    1.3810 C.3     1  UNL1        0.0470
      7  C          6.1780   -0.2730    0.8430 C.2     1  UNL1       -0.0470
      8  C          6.4300    0.1090   -0.4670 C.2     1  UNL1        0.0040
      9  C          5.4080    0.5890    1.6020 C.2     1  UNL1        0.0040
     10  C          5.9430    1.2840   -0.9920 C.2     1  UNL1        0.0000
     11  C          4.9210    1.7660    1.0750 C.2     1  UNL1        0.0000
     12  C          5.1760    2.1390   -0.2260 C.2     1  UNL1        0.0000
@<TRIPOS>BOND
     1     5     4    1
     2     4     2    1
     3    10     8    1
     4    10    12    2
     5     8     7    2
     6    12    11    1
     7     2     3    2
     8     2     1    1
     9     7     6    1
    10     7     9    1
    11    11     9    2
    12     1     6    1
