@<TRIPOS>MOLECULE
/home/cewinharhar/GITHUB/reincatalyze/data/processed/docking_pred/2023-Apr-25-2248_maxeplen10_maxtrainstep1000_exh16_gamma099_lrac3e-4_lrcr1e-3/1f53ccdef65850680f3a99c865464637782ca6a5_ligand_2.pdbqt
 12 12 0 0 0
SMALL
GASTEIGER

@<TRIPOS>ATOM
      1  C          5.0100    1.7850    0.7060 C.3     1  UNL1        0.1270
      2  C          4.4840    1.1170    1.9100 C.2     1  UNL1        0.3030
      3  O          5.1720    0.2150    2.4600 O.2     1  UNL1       -0.2520
      4  O          3.2420    1.4520    2.4690 O.3     1  UNL1       -0.4810
      5  H          3.1140    2.3850    2.8380 H       1  UNL1        0.2960
      6  C          6.5220    1.9170    0.7380 C.3     1  UNL1        0.0470
      7  C          7.1490    1.1110   -0.3430 C.2     1  UNL1       -0.0470
      8  C          6.3970    0.2060   -1.0780 C.2     1  UNL1        0.0040
      9  C          8.4910    1.2060   -0.6650 C.2     1  UNL1        0.0040
     10  C          6.9510   -0.5620   -2.0770 C.2     1  UNL1        0.0000
     11  C          9.0430    0.4360   -1.6650 C.2     1  UNL1        0.0000
     12  C          8.2910   -0.4600   -2.3900 C.2     1  UNL1        0.0000
@<TRIPOS>BOND
     1    12    10    2
     2    12    11    1
     3    10     8    1
     4    11     9    2
     5     8     7    2
     6     9     7    1
     7     7     6    1
     8     1     6    1
     9     1     2    1
    10     2     3    2
    11     2     4    1
    12     4     5    1
