@<TRIPOS>MOLECULE
/home/cewinharhar/GITHUB/reincatalyze/data/processed/docking_pred/2023-Apr-25-2248_maxeplen10_maxtrainstep1000_exh16_gamma099_lrac3e-4_lrcr1e-3/1f53ccdef65850680f3a99c865464637782ca6a5_ligand_2.pdbqt
 12 12 0 0 0
SMALL
GASTEIGER

@<TRIPOS>ATOM
      1  C          8.1770   -0.9510   -1.8860 C.3     1  UNL1        0.1270
      2  C          8.3540   -2.0290   -2.8750 C.2     1  UNL1        0.3030
      3  O          9.5140   -2.4680   -3.1020 O.2     1  UNL1       -0.2520
      4  O          7.2730   -2.5870   -3.5740 O.3     1  UNL1       -0.4810
      5  H          7.4650   -3.1420   -4.3970 H       1  UNL1        0.2960
      6  C          7.3770   -1.4050   -0.6790 C.3     1  UNL1        0.0470
      7  C          6.5560   -0.2920   -0.1340 C.2     1  UNL1       -0.0470
      8  C          6.0860   -0.3320    1.1700 C.2     1  UNL1        0.0040
      9  C          6.2120    0.8190   -0.8820 C.2     1  UNL1        0.0040
     10  C          5.3150    0.6770    1.7000 C.2     1  UNL1        0.0000
     11  C          5.4410    1.8300   -0.3490 C.2     1  UNL1        0.0000
     12  C          4.9770    1.7820    0.9450 C.2     1  UNL1        0.0000
@<TRIPOS>BOND
     1     5     4    1
     2     4     2    1
     3     3     2    2
     4     2     1    1
     5     1     6    1
     6     9    11    1
     7     9     7    2
     8     6     7    1
     9    11    12    2
    10     7     8    1
    11    12    10    1
    12     8    10    2
