@<TRIPOS>MOLECULE
/home/cewinharhar/GITHUB/reincatalyze/data/processed/docking_pred/2023-Apr-25-2248_maxeplen10_maxtrainstep1000_exh16_gamma099_lrac3e-4_lrcr1e-3/1f53ccdef65850680f3a99c865464637782ca6a5_ligand_2.pdbqt
 12 12 0 0 0
SMALL
GASTEIGER

@<TRIPOS>ATOM
      1  C          8.3040   -1.0900   -1.6500 C.3     1  UNL1        0.1270
      2  C          8.3700   -2.0490   -2.7670 C.2     1  UNL1        0.3030
      3  O          7.2970   -2.4510   -3.2930 O.2     1  UNL1       -0.2520
      4  O          9.5880   -2.5310   -3.2670 O.3     1  UNL1       -0.4810
      5  H         10.4140   -2.4490   -2.6900 H       1  UNL1        0.2960
      6  C          7.3790   -1.5620   -0.5430 C.3     1  UNL1        0.0470
      7  C          6.5530   -0.4400   -0.0240 C.2     1  UNL1       -0.0470
      8  C          6.2910    0.6700   -0.8150 C.2     1  UNL1        0.0040
      9  C          6.0170   -0.4320    1.2510 C.2     1  UNL1        0.0040
     10  C          5.5380    1.7290   -0.3610 C.2     1  UNL1        0.0000
     11  C          5.2640    0.6300    1.7040 C.2     1  UNL1        0.0000
     12  C          5.0090    1.7280    0.9140 C.2     1  UNL1        0.0000
@<TRIPOS>BOND
     1     3     2    2
     2     4     2    1
     3     4     5    1
     4     2     1    1
     5     1     6    1
     6     8    10    1
     7     8     7    2
     8     6     7    1
     9    10    12    2
    10     7     9    1
    11    12    11    1
    12     9    11    2
