MODEL 1
REMARK VINA RESULT:      -7.3      0.000      0.000
REMARK SMILES O=C(O)CCc1ccccc1
REMARK SMILES IDX 4 1 2 2 1 3 3 4 5 6 6 7 7 8 11 9 8 10 10 11 9 12
REMARK H PARENT 3 5
REMARK Flexibility Score: inf
ROOT
ATOM      1  C   UNL     1       8.422  -0.616  -2.160  1.00  0.00     0.127 C 
ENDROOT
BRANCH   1   2
ATOM      2  C   UNL     1       8.464  -1.889  -2.901  1.00  0.00     0.303 C 
ATOM      3  O   UNL     1       9.576  -2.454  -3.084  1.00  0.00    -0.252 OA
BRANCH   2   4
ATOM      4  O   UNL     1       7.307  -2.496  -3.410  1.00  0.00    -0.481 OA
ATOM      5  H   UNL     1       6.680  -2.959  -2.765  1.00  0.00     0.296 HD
ENDBRANCH   2   4
ENDBRANCH   1   2
BRANCH   1   6
ATOM      6  C   UNL     1       7.032  -0.005  -2.146  1.00  0.00     0.047 C 
BRANCH   6   7
ATOM      7  C   UNL     1       6.492   0.059  -0.763  1.00  0.00    -0.047 A 
ATOM      8  C   UNL     1       5.840   1.197  -0.310  1.00  0.00     0.004 A 
ATOM      9  C   UNL     1       6.615  -0.983   0.138  1.00  0.00     0.004 A 
ATOM     10  C   UNL     1       5.338   1.292   0.968  1.00  0.00     0.000 A 
ATOM     11  C   UNL     1       6.112  -0.886   1.417  1.00  0.00     0.000 A 
ATOM     12  C   UNL     1       5.467   0.247   1.859  1.00  0.00     0.000 A 
ENDBRANCH   6   7
ENDBRANCH   1   6
TORSDOF 4
ENDMDL
MODEL 2
REMARK VINA RESULT:      -7.3      0.100      1.724
REMARK SMILES O=C(O)CCc1ccccc1
REMARK SMILES IDX 4 1 2 2 1 3 3 4 5 6 6 7 7 8 11 9 8 10 10 11 9 12
REMARK H PARENT 3 5
REMARK Flexibility Score: inf
ROOT
ATOM      1  C   UNL     1       8.388  -0.673  -2.096  1.00  0.00     0.127 C 
ENDROOT
BRANCH   1   2
ATOM      2  C   UNL     1       8.394  -1.919  -2.881  1.00  0.00     0.303 C 
ATOM      3  O   UNL     1       7.295  -2.419  -3.245  1.00  0.00    -0.252 OA
BRANCH   2   4
ATOM      4  O   UNL     1       9.582  -2.571  -3.241  1.00  0.00    -0.481 OA
ATOM      5  H   UNL     1       9.755  -3.498  -2.876  1.00  0.00     0.296 HD
ENDBRANCH   2   4
ENDBRANCH   1   2
BRANCH   1   6
ATOM      6  C   UNL     1       7.032   0.011  -2.114  1.00  0.00     0.047 C 
BRANCH   6   7
ATOM      7  C   UNL     1       6.471   0.119  -0.742  1.00  0.00    -0.047 A 
ATOM      8  C   UNL     1       6.606  -0.926   0.162  1.00  0.00     0.004 A 
ATOM      9  C   UNL     1       5.789   1.237  -0.298  1.00  0.00     0.004 A 
ATOM     10  C   UNL     1       6.089  -0.861   1.435  1.00  0.00     0.000 A 
ATOM     11  C   UNL     1       5.272   1.300   0.978  1.00  0.00     0.000 A 
ATOM     12  C   UNL     1       5.408   0.259   1.868  1.00  0.00     0.000 A 
ENDBRANCH   6   7
ENDBRANCH   1   6
TORSDOF 4
ENDMDL
MODEL 3
REMARK VINA RESULT:      -7.2      0.688      1.635
REMARK SMILES O=C(O)CCc1ccccc1
REMARK SMILES IDX 4 1 2 2 1 3 3 4 5 6 6 7 7 8 11 9 8 10 10 11 9 12
REMARK H PARENT 3 5
REMARK Flexibility Score: inf
ROOT
ATOM      1  C   UNL     1       8.177  -0.951  -1.886  1.00  0.00     0.127 C 
ENDROOT
BRANCH   1   2
ATOM      2  C   UNL     1       8.354  -2.029  -2.875  1.00  0.00     0.303 C 
ATOM      3  O   UNL     1       9.514  -2.468  -3.102  1.00  0.00    -0.252 OA
BRANCH   2   4
ATOM      4  O   UNL     1       7.273  -2.587  -3.574  1.00  0.00    -0.481 OA
ATOM      5  H   UNL     1       7.465  -3.142  -4.397  1.00  0.00     0.296 HD
ENDBRANCH   2   4
ENDBRANCH   1   2
BRANCH   1   6
ATOM      6  C   UNL     1       7.377  -1.405  -0.679  1.00  0.00     0.047 C 
BRANCH   6   7
ATOM      7  C   UNL     1       6.556  -0.292  -0.134  1.00  0.00    -0.047 A 
ATOM      8  C   UNL     1       6.086  -0.332   1.170  1.00  0.00     0.004 A 
ATOM      9  C   UNL     1       6.212   0.819  -0.882  1.00  0.00     0.004 A 
ATOM     10  C   UNL     1       5.315   0.677   1.700  1.00  0.00     0.000 A 
ATOM     11  C   UNL     1       5.441   1.830  -0.349  1.00  0.00     0.000 A 
ATOM     12  C   UNL     1       4.977   1.782   0.945  1.00  0.00     0.000 A 
ENDBRANCH   6   7
ENDBRANCH   1   6
TORSDOF 4
ENDMDL
MODEL 4
REMARK VINA RESULT:      -7.0      0.691      1.594
REMARK SMILES O=C(O)CCc1ccccc1
REMARK SMILES IDX 4 1 2 2 1 3 3 4 5 6 6 7 7 8 11 9 8 10 10 11 9 12
REMARK H PARENT 3 5
REMARK Flexibility Score: inf
ROOT
ATOM      1  C   UNL     1       8.304  -1.090  -1.650  1.00  0.00     0.127 C 
ENDROOT
BRANCH   1   2
ATOM      2  C   UNL     1       8.370  -2.049  -2.767  1.00  0.00     0.303 C 
ATOM      3  O   UNL     1       7.297  -2.451  -3.293  1.00  0.00    -0.252 OA
BRANCH   2   4
ATOM      4  O   UNL     1       9.588  -2.531  -3.267  1.00  0.00    -0.481 OA
ATOM      5  H   UNL     1      10.414  -2.449  -2.690  1.00  0.00     0.296 HD
ENDBRANCH   2   4
ENDBRANCH   1   2
BRANCH   1   6
ATOM      6  C   UNL     1       7.379  -1.562  -0.543  1.00  0.00     0.047 C 
BRANCH   6   7
ATOM      7  C   UNL     1       6.553  -0.440  -0.024  1.00  0.00    -0.047 A 
ATOM      8  C   UNL     1       6.291   0.670  -0.815  1.00  0.00     0.004 A 
ATOM      9  C   UNL     1       6.017  -0.432   1.251  1.00  0.00     0.004 A 
ATOM     10  C   UNL     1       5.538   1.729  -0.361  1.00  0.00     0.000 A 
ATOM     11  C   UNL     1       5.264   0.630   1.704  1.00  0.00     0.000 A 
ATOM     12  C   UNL     1       5.009   1.728   0.914  1.00  0.00     0.000 A 
ENDBRANCH   6   7
ENDBRANCH   1   6
TORSDOF 4
ENDMDL
MODEL 5
REMARK VINA RESULT:      -6.8      3.388      5.082
REMARK SMILES O=C(O)CCc1ccccc1
REMARK SMILES IDX 4 1 2 2 1 3 3 4 5 6 6 7 7 8 11 9 8 10 10 11 9 12
REMARK H PARENT 3 5
REMARK Flexibility Score: inf
ROOT
ATOM      1  C   UNL     1       5.010   1.785   0.706  1.00  0.00     0.127 C 
ENDROOT
BRANCH   1   2
ATOM      2  C   UNL     1       4.484   1.117   1.910  1.00  0.00     0.303 C 
ATOM      3  O   UNL     1       5.172   0.215   2.460  1.00  0.00    -0.252 OA
BRANCH   2   4
ATOM      4  O   UNL     1       3.242   1.452   2.469  1.00  0.00    -0.481 OA
ATOM      5  H   UNL     1       3.114   2.385   2.838  1.00  0.00     0.296 HD
ENDBRANCH   2   4
ENDBRANCH   1   2
BRANCH   1   6
ATOM      6  C   UNL     1       6.522   1.917   0.738  1.00  0.00     0.047 C 
BRANCH   6   7
ATOM      7  C   UNL     1       7.149   1.111  -0.343  1.00  0.00    -0.047 A 
ATOM      8  C   UNL     1       6.397   0.206  -1.078  1.00  0.00     0.004 A 
ATOM      9  C   UNL     1       8.491   1.206  -0.665  1.00  0.00     0.004 A 
ATOM     10  C   UNL     1       6.951  -0.562  -2.077  1.00  0.00     0.000 A 
ATOM     11  C   UNL     1       9.043   0.436  -1.665  1.00  0.00     0.000 A 
ATOM     12  C   UNL     1       8.291  -0.460  -2.390  1.00  0.00     0.000 A 
ENDBRANCH   6   7
ENDBRANCH   1   6
TORSDOF 4
ENDMDL
