@<TRIPOS>MOLECULE
/home/cewinharhar/GITHUB/reincatalyze/data/processed/docking_pred/2023-Apr-25-2248_maxeplen10_maxtrainstep1000_exh16_gamma099_lrac3e-4_lrcr1e-3/1f53ccdef65850680f3a99c865464637782ca6a5_ligand_2.pdbqt
 12 12 0 0 0
SMALL
GASTEIGER

@<TRIPOS>ATOM
      1  C          8.4220   -0.6160   -2.1600 C.3     1  UNL1        0.1270
      2  C          8.4640   -1.8890   -2.9010 C.2     1  UNL1        0.3030
      3  O          9.5760   -2.4540   -3.0840 O.2     1  UNL1       -0.2520
      4  O          7.3070   -2.4960   -3.4100 O.3     1  UNL1       -0.4810
      5  H          6.6800   -2.9590   -2.7650 H       1  UNL1        0.2960
      6  C          7.0320   -0.0050   -2.1460 C.3     1  UNL1        0.0470
      7  C          6.4920    0.0590   -0.7630 C.2     1  UNL1       -0.0470
      8  C          5.8400    1.1970   -0.3100 C.2     1  UNL1        0.0040
      9  C          6.6150   -0.9830    0.1380 C.2     1  UNL1        0.0040
     10  C          5.3380    1.2920    0.9680 C.2     1  UNL1        0.0000
     11  C          6.1120   -0.8860    1.4170 C.2     1  UNL1        0.0000
     12  C          5.4670    0.2470    1.8590 C.2     1  UNL1        0.0000
@<TRIPOS>BOND
     1     4     2    1
     2     4     5    1
     3     3     2    2
     4     2     1    1
     5     1     6    1
     6     6     7    1
     7     7     8    2
     8     7     9    1
     9     8    10    1
    10     9    11    2
    11    10    12    2
    12    11    12    1
