@<TRIPOS>MOLECULE
/home/cewinharhar/GITHUB/reincatalyze/data/processed/docking_pred/2023-Apr-25-2248_maxeplen10_maxtrainstep1000_exh16_gamma099_lrac3e-4_lrcr1e-3/1f53ccdef65850680f3a99c865464637782ca6a5_ligand_2.pdbqt
 12 12 0 0 0
SMALL
GASTEIGER

@<TRIPOS>ATOM
      1  C          8.3880   -0.6730   -2.0960 C.3     1  UNL1        0.1270
      2  C          8.3940   -1.9190   -2.8810 C.2     1  UNL1        0.3030
      3  O          7.2950   -2.4190   -3.2450 O.2     1  UNL1       -0.2520
      4  O          9.5820   -2.5710   -3.2410 O.3     1  UNL1       -0.4810
      5  H          9.7550   -3.4980   -2.8760 H       1  UNL1        0.2960
      6  C          7.0320    0.0110   -2.1140 C.3     1  UNL1        0.0470
      7  C          6.4710    0.1190   -0.7420 C.2     1  UNL1       -0.0470
      8  C          6.6060   -0.9260    0.1620 C.2     1  UNL1        0.0040
      9  C          5.7890    1.2370   -0.2980 C.2     1  UNL1        0.0040
     10  C          6.0890   -0.8610    1.4350 C.2     1  UNL1        0.0000
     11  C          5.2720    1.3000    0.9780 C.2     1  UNL1        0.0000
     12  C          5.4080    0.2590    1.8680 C.2     1  UNL1        0.0000
@<TRIPOS>BOND
     1     3     2    2
     2     4     2    1
     3     4     5    1
     4     2     1    1
     5     6     1    1
     6     6     7    1
     7     7     9    2
     8     7     8    1
     9     9    11    1
    10     8    10    2
    11    11    12    2
    12    10    12    1
