MODEL 1
REMARK VINA RESULT:      -7.3      0.000      0.000
REMARK SMILES O=C(O)CCc1ccccc1
REMARK SMILES IDX 4 1 2 2 1 3 3 4 5 6 6 7 7 8 11 9 8 10 10 11 9 12
REMARK H PARENT 3 5
REMARK Flexibility Score: inf
ROOT
ATOM      1  C   UNL     1       8.409  -0.645  -2.125  1.00  0.00     0.127 C 
ENDROOT
BRANCH   1   2
ATOM      2  C   UNL     1       8.439  -1.899  -2.898  1.00  0.00     0.303 C 
ATOM      3  O   UNL     1       9.546  -2.469  -3.099  1.00  0.00    -0.252 OA
BRANCH   2   4
ATOM      4  O   UNL     1       7.276  -2.485  -3.419  1.00  0.00    -0.481 OA
ATOM      5  H   UNL     1       6.393  -2.013  -3.278  1.00  0.00     0.296 HD
ENDBRANCH   2   4
ENDBRANCH   1   2
BRANCH   1   6
ATOM      6  C   UNL     1       7.032  -0.006  -2.121  1.00  0.00     0.047 C 
BRANCH   6   7
ATOM      7  C   UNL     1       6.483   0.066  -0.742  1.00  0.00    -0.047 A 
ATOM      8  C   UNL     1       5.835   1.209  -0.296  1.00  0.00     0.004 A 
ATOM      9  C   UNL     1       6.591  -0.975   0.162  1.00  0.00     0.004 A 
ATOM     10  C   UNL     1       5.325   1.311   0.978  1.00  0.00     0.000 A 
ATOM     11  C   UNL     1       6.080  -0.872   1.438  1.00  0.00     0.000 A 
ATOM     12  C   UNL     1       5.440   0.266   1.873  1.00  0.00     0.000 A 
ENDBRANCH   6   7
ENDBRANCH   1   6
TORSDOF 4
ENDMDL
MODEL 2
REMARK VINA RESULT:      -7.2      0.088      1.723
REMARK SMILES O=C(O)CCc1ccccc1
REMARK SMILES IDX 4 1 2 2 1 3 3 4 5 6 6 7 7 8 11 9 8 10 10 11 9 12
REMARK H PARENT 3 5
REMARK Flexibility Score: inf
ROOT
ATOM      1  C   UNL     1       8.376  -0.621  -2.154  1.00  0.00     0.127 C 
ENDROOT
BRANCH   1   2
ATOM      2  C   UNL     1       8.389  -1.888  -2.905  1.00  0.00     0.303 C 
ATOM      3  O   UNL     1       7.292  -2.404  -3.254  1.00  0.00    -0.252 OA
BRANCH   2   4
ATOM      4  O   UNL     1       9.580  -2.544  -3.247  1.00  0.00    -0.481 OA
ATOM      5  H   UNL     1       9.526  -3.388  -3.800  1.00  0.00     0.296 HD
ENDBRANCH   2   4
ENDBRANCH   1   2
BRANCH   1   6
ATOM      6  C   UNL     1       7.002   0.025  -2.140  1.00  0.00     0.047 C 
BRANCH   6   7
ATOM      7  C   UNL     1       6.468   0.112  -0.756  1.00  0.00    -0.047 A 
ATOM      8  C   UNL     1       6.601  -0.955   0.122  1.00  0.00     0.004 A 
ATOM      9  C   UNL     1       5.813   1.230  -0.276  1.00  0.00     0.004 A 
ATOM     10  C   UNL     1       6.108  -0.910   1.406  1.00  0.00     0.000 A 
ATOM     11  C   UNL     1       5.319   1.274   1.011  1.00  0.00     0.000 A 
ATOM     12  C   UNL     1       5.454   0.212   1.875  1.00  0.00     0.000 A 
ENDBRANCH   6   7
ENDBRANCH   1   6
TORSDOF 4
ENDMDL
MODEL 3
REMARK VINA RESULT:      -6.8      3.387      5.086
REMARK SMILES O=C(O)CCc1ccccc1
REMARK SMILES IDX 4 1 2 2 1 3 3 4 5 6 6 7 7 8 11 9 8 10 10 11 9 12
REMARK H PARENT 3 5
REMARK Flexibility Score: inf
ROOT
ATOM      1  C   UNL     1       4.991   1.729   0.685  1.00  0.00     0.127 C 
ENDROOT
BRANCH   1   2
ATOM      2  C   UNL     1       4.478   1.095   1.912  1.00  0.00     0.303 C 
ATOM      3  O   UNL     1       5.171   0.207   2.479  1.00  0.00    -0.252 OA
BRANCH   2   4
ATOM      4  O   UNL     1       3.243   1.447   2.475  1.00  0.00    -0.481 OA
ATOM      5  H   UNL     1       2.921   2.401   2.377  1.00  0.00     0.296 HD
ENDBRANCH   2   4
ENDBRANCH   1   2
BRANCH   1   6
ATOM      6  C   UNL     1       6.499   1.904   0.717  1.00  0.00     0.047 C 
BRANCH   6   7
ATOM      7  C   UNL     1       7.151   1.106  -0.354  1.00  0.00    -0.047 A 
ATOM      8  C   UNL     1       6.417   0.204  -1.111  1.00  0.00     0.004 A 
ATOM      9  C   UNL     1       8.499   1.205  -0.646  1.00  0.00     0.004 A 
ATOM     10  C   UNL     1       6.993  -0.558  -2.102  1.00  0.00     0.000 A 
ATOM     11  C   UNL     1       9.074   0.441  -1.639  1.00  0.00     0.000 A 
ATOM     12  C   UNL     1       8.340  -0.453  -2.385  1.00  0.00     0.000 A 
ENDBRANCH   6   7
ENDBRANCH   1   6
TORSDOF 4
ENDMDL
MODEL 4
REMARK VINA RESULT:      -6.8      3.361      5.048
REMARK SMILES O=C(O)CCc1ccccc1
REMARK SMILES IDX 4 1 2 2 1 3 3 4 5 6 6 7 7 8 11 9 8 10 10 11 9 12
REMARK H PARENT 3 5
REMARK Flexibility Score: inf
ROOT
ATOM      1  C   UNL     1       5.027   1.712   0.705  1.00  0.00     0.127 C 
ENDROOT
BRANCH   1   2
ATOM      2  C   UNL     1       4.559   1.044   1.933  1.00  0.00     0.303 C 
ATOM      3  O   UNL     1       5.301   0.185   2.483  1.00  0.00    -0.252 OA
BRANCH   2   4
ATOM      4  O   UNL     1       3.315   1.331   2.513  1.00  0.00    -0.481 OA
ATOM      5  H   UNL     1       2.546   1.581   1.907  1.00  0.00     0.296 HD
ENDBRANCH   2   4
ENDBRANCH   1   2
BRANCH   1   6
ATOM      6  C   UNL     1       6.535   1.887   0.686  1.00  0.00     0.047 C 
BRANCH   6   7
ATOM      7  C   UNL     1       7.154   1.056  -0.379  1.00  0.00    -0.047 A 
ATOM      8  C   UNL     1       8.505   1.176  -0.675  1.00  0.00     0.004 A 
ATOM      9  C   UNL     1       6.436   0.143  -1.129  1.00  0.00     0.004 A 
ATOM     10  C   UNL     1       9.105   0.429  -1.662  1.00  0.00     0.000 A 
ATOM     11  C   UNL     1       7.039  -0.605  -2.117  1.00  0.00     0.000 A 
ATOM     12  C   UNL     1       8.379  -0.479  -2.405  1.00  0.00     0.000 A 
ENDBRANCH   6   7
ENDBRANCH   1   6
TORSDOF 4
ENDMDL
MODEL 5
REMARK VINA RESULT:      -6.6      3.831      4.998
REMARK SMILES O=C(O)CCc1ccccc1
REMARK SMILES IDX 4 1 2 2 1 3 3 4 5 6 6 7 7 8 11 9 8 10 10 11 9 12
REMARK H PARENT 3 5
REMARK Flexibility Score: inf
ROOT
ATOM      1  C   UNL     1       5.479   2.896   0.049  1.00  0.00     0.127 C 
ENDROOT
BRANCH   1   2
ATOM      2  C   UNL     1       6.240   3.890   0.826  1.00  0.00     0.303 C 
ATOM      3  O   UNL     1       6.900   4.772   0.213  1.00  0.00    -0.252 OA
BRANCH   2   4
ATOM      4  O   UNL     1       6.255   3.891   2.229  1.00  0.00    -0.481 OA
ATOM      5  H   UNL     1       7.118   3.664   2.703  1.00  0.00     0.296 HD
ENDBRANCH   2   4
ENDBRANCH   1   2
BRANCH   1   6
ATOM      6  C   UNL     1       4.900   1.802   0.927  1.00  0.00     0.047 C 
BRANCH   6   7
ATOM      7  C   UNL     1       5.784   0.607   0.940  1.00  0.00    -0.047 A 
ATOM      8  C   UNL     1       5.713  -0.314   1.976  1.00  0.00     0.004 A 
ATOM      9  C   UNL     1       6.714   0.353  -0.050  1.00  0.00     0.004 A 
ATOM     10  C   UNL     1       6.524  -1.425   2.022  1.00  0.00     0.000 A 
ATOM     11  C   UNL     1       7.526  -0.760  -0.002  1.00  0.00     0.000 A 
ATOM     12  C   UNL     1       7.451  -1.669   1.029  1.00  0.00     0.000 A 
ENDBRANCH   6   7
ENDBRANCH   1   6
TORSDOF 4
ENDMDL
