@<TRIPOS>MOLECULE
/home/cewinharhar/GITHUB/reincatalyze/data/processed/docking_pred/2023-Apr-25-2248_maxeplen10_maxtrainstep1000_exh16_gamma099_lrac3e-4_lrcr1e-3/1f774135605f6656ff2aa9e322f53f2a679c664c_ligand_2.pdbqt
 12 12 0 0 0
SMALL
GASTEIGER

@<TRIPOS>ATOM
      1  C          5.4790    2.8960    0.0490 C.3     1  UNL1        0.1270
      2  C          6.2400    3.8900    0.8260 C.2     1  UNL1        0.3030
      3  O          6.9000    4.7720    0.2130 O.2     1  UNL1       -0.2520
      4  O          6.2550    3.8910    2.2290 O.3     1  UNL1       -0.4810
      5  H          7.1180    3.6640    2.7030 H       1  UNL1        0.2960
      6  C          4.9000    1.8020    0.9270 C.3     1  UNL1        0.0470
      7  C          5.7840    0.6070    0.9400 C.2     1  UNL1       -0.0470
      8  C          5.7130   -0.3140    1.9760 C.2     1  UNL1        0.0040
      9  C          6.7140    0.3530   -0.0500 C.2     1  UNL1        0.0040
     10  C          6.5240   -1.4250    2.0220 C.2     1  UNL1        0.0000
     11  C          7.5260   -0.7600   -0.0020 C.2     1  UNL1        0.0000
     12  C          7.4510   -1.6690    1.0290 C.2     1  UNL1        0.0000
@<TRIPOS>BOND
     1     9    11    1
     2     9     7    2
     3    11    12    2
     4     1     2    1
     5     1     6    1
     6     3     2    2
     7     2     4    1
     8     6     7    1
     9     7     8    1
    10    12    10    1
    11     8    10    2
    12     4     5    1
