@<TRIPOS>MOLECULE
/home/cewinharhar/GITHUB/reincatalyze/data/processed/docking_pred/2023-Apr-25-2248_maxeplen10_maxtrainstep1000_exh16_gamma099_lrac3e-4_lrcr1e-3/1f774135605f6656ff2aa9e322f53f2a679c664c_ligand_2.pdbqt
 12 12 0 0 0
SMALL
GASTEIGER

@<TRIPOS>ATOM
      1  C          8.4090   -0.6450   -2.1250 C.3     1  UNL1        0.1270
      2  C          8.4390   -1.8990   -2.8980 C.2     1  UNL1        0.3030
      3  O          9.5460   -2.4690   -3.0990 O.2     1  UNL1       -0.2520
      4  O          7.2760   -2.4850   -3.4190 O.3     1  UNL1       -0.4810
      5  H          6.3930   -2.0130   -3.2780 H       1  UNL1        0.2960
      6  C          7.0320   -0.0060   -2.1210 C.3     1  UNL1        0.0470
      7  C          6.4830    0.0660   -0.7420 C.2     1  UNL1       -0.0470
      8  C          5.8350    1.2090   -0.2960 C.2     1  UNL1        0.0040
      9  C          6.5910   -0.9750    0.1620 C.2     1  UNL1        0.0040
     10  C          5.3250    1.3110    0.9780 C.2     1  UNL1        0.0000
     11  C          6.0800   -0.8720    1.4380 C.2     1  UNL1        0.0000
     12  C          5.4400    0.2660    1.8730 C.2     1  UNL1        0.0000
@<TRIPOS>BOND
     1     4     5    1
     2     4     2    1
     3     3     2    2
     4     2     1    1
     5     1     6    1
     6     6     7    1
     7     7     8    2
     8     7     9    1
     9     8    10    1
    10     9    11    2
    11    10    12    2
    12    11    12    1
