@<TRIPOS>MOLECULE
/home/cewinharhar/GITHUB/reincatalyze/data/processed/docking_pred/2023-Apr-25-2248_maxeplen10_maxtrainstep1000_exh16_gamma099_lrac3e-4_lrcr1e-3/1f774135605f6656ff2aa9e322f53f2a679c664c_ligand_2.pdbqt
 12 12 0 0 0
SMALL
GASTEIGER

@<TRIPOS>ATOM
      1  C          5.0270    1.7120    0.7050 C.3     1  UNL1        0.1270
      2  C          4.5590    1.0440    1.9330 C.2     1  UNL1        0.3030
      3  O          5.3010    0.1850    2.4830 O.2     1  UNL1       -0.2520
      4  O          3.3150    1.3310    2.5130 O.3     1  UNL1       -0.4810
      5  H          2.5460    1.5810    1.9070 H       1  UNL1        0.2960
      6  C          6.5350    1.8870    0.6860 C.3     1  UNL1        0.0470
      7  C          7.1540    1.0560   -0.3790 C.2     1  UNL1       -0.0470
      8  C          8.5050    1.1760   -0.6750 C.2     1  UNL1        0.0040
      9  C          6.4360    0.1430   -1.1290 C.2     1  UNL1        0.0040
     10  C          9.1050    0.4290   -1.6620 C.2     1  UNL1        0.0000
     11  C          7.0390   -0.6050   -2.1170 C.2     1  UNL1        0.0000
     12  C          8.3790   -0.4790   -2.4050 C.2     1  UNL1        0.0000
@<TRIPOS>BOND
     1    12    11    2
     2    12    10    1
     3    11     9    1
     4    10     8    2
     5     9     7    2
     6     8     7    1
     7     7     6    1
     8     6     1    1
     9     1     2    1
    10     5     4    1
    11     2     3    2
    12     2     4    1
