@<TRIPOS>MOLECULE
/home/cewinharhar/GITHUB/reincatalyze/data/processed/docking_pred/2023-Apr-25-2248_maxeplen10_maxtrainstep1000_exh16_gamma099_lrac3e-4_lrcr1e-3/1f774135605f6656ff2aa9e322f53f2a679c664c_ligand_2.pdbqt
 12 12 0 0 0
SMALL
GASTEIGER

@<TRIPOS>ATOM
      1  C          8.3760   -0.6210   -2.1540 C.3     1  UNL1        0.1270
      2  C          8.3890   -1.8880   -2.9050 C.2     1  UNL1        0.3030
      3  O          7.2920   -2.4040   -3.2540 O.2     1  UNL1       -0.2520
      4  O          9.5800   -2.5440   -3.2470 O.3     1  UNL1       -0.4810
      5  H          9.5260   -3.3880   -3.8000 H       1  UNL1        0.2960
      6  C          7.0020    0.0250   -2.1400 C.3     1  UNL1        0.0470
      7  C          6.4680    0.1120   -0.7560 C.2     1  UNL1       -0.0470
      8  C          6.6010   -0.9550    0.1220 C.2     1  UNL1        0.0040
      9  C          5.8130    1.2300   -0.2760 C.2     1  UNL1        0.0040
     10  C          6.1080   -0.9100    1.4060 C.2     1  UNL1        0.0000
     11  C          5.3190    1.2740    1.0110 C.2     1  UNL1        0.0000
     12  C          5.4540    0.2120    1.8750 C.2     1  UNL1        0.0000
@<TRIPOS>BOND
     1     5     4    1
     2     3     2    2
     3     4     2    1
     4     2     1    1
     5     1     6    1
     6     6     7    1
     7     7     9    2
     8     7     8    1
     9     9    11    1
    10     8    10    2
    11    11    12    2
    12    10    12    1
