@<TRIPOS>MOLECULE
/home/cewinharhar/GITHUB/reincatalyze/data/processed/docking_pred/2023-Apr-25-2248_maxeplen10_maxtrainstep1000_exh16_gamma099_lrac3e-4_lrcr1e-3/1fd5ec6d4a6889d2560636754963a08404c0587d_ligand_2.pdbqt
 12 12 0 0 0
SMALL
GASTEIGER

@<TRIPOS>ATOM
      1  C          5.0230    1.7080    0.6840 C.3     1  UNL1        0.1270
      2  C          4.5030    1.0890    1.9160 C.2     1  UNL1        0.3030
      3  O          5.1960    0.2130    2.5020 O.2     1  UNL1       -0.2520
      4  O          3.2610    1.4420    2.4640 O.3     1  UNL1       -0.4810
      5  H          2.4730    0.8280    2.3100 H       1  UNL1        0.2960
      6  C          6.5340    1.8620    0.7140 C.3     1  UNL1        0.0470
      7  C          7.1720    1.0610   -0.3640 C.2     1  UNL1       -0.0470
      8  C          6.4250    0.1680   -1.1190 C.2     1  UNL1        0.0040
      9  C          8.5190    1.1490   -0.6640 C.2     1  UNL1        0.0040
     10  C          6.9880   -0.5950   -2.1160 C.2     1  UNL1        0.0000
     11  C          9.0810    0.3840   -1.6620 C.2     1  UNL1        0.0000
     12  C          8.3340   -0.5010   -2.4060 C.2     1  UNL1        0.0000
@<TRIPOS>BOND
     1    12    10    2
     2    12    11    1
     3    10     8    1
     4    11     9    2
     5     8     7    2
     6     9     7    1
     7     7     6    1
     8     1     6    1
     9     1     2    1
    10     2     4    1
    11     2     3    2
    12     5     4    1
