MODEL 1
REMARK VINA RESULT:      -7.3      0.000      0.000
REMARK SMILES O=C(O)CCc1ccccc1
REMARK SMILES IDX 4 1 2 2 1 3 3 4 5 6 6 7 7 8 11 9 8 10 10 11 9 12
REMARK H PARENT 3 5
REMARK Flexibility Score: inf
ROOT
ATOM      1  C   UNL     1       8.404  -0.661  -2.114  1.00  0.00     0.127 C 
ENDROOT
BRANCH   1   2
ATOM      2  C   UNL     1       8.435  -1.911  -2.893  1.00  0.00     0.303 C 
ATOM      3  O   UNL     1       9.540  -2.487  -3.084  1.00  0.00    -0.252 OA
BRANCH   2   4
ATOM      4  O   UNL     1       7.274  -2.485  -3.432  1.00  0.00    -0.481 OA
ATOM      5  H   UNL     1       6.823  -2.024  -4.211  1.00  0.00     0.296 HD
ENDBRANCH   2   4
ENDBRANCH   1   2
BRANCH   1   6
ATOM      6  C   UNL     1       7.029  -0.018  -2.114  1.00  0.00     0.047 C 
BRANCH   6   7
ATOM      7  C   UNL     1       6.477   0.060  -0.736  1.00  0.00    -0.047 A 
ATOM      8  C   UNL     1       5.822   1.203  -0.300  1.00  0.00     0.004 A 
ATOM      9  C   UNL     1       6.589  -0.974   0.175  1.00  0.00     0.004 A 
ATOM     10  C   UNL     1       5.309   1.310   0.972  1.00  0.00     0.000 A 
ATOM     11  C   UNL     1       6.075  -0.865   1.449  1.00  0.00     0.000 A 
ATOM     12  C   UNL     1       5.428   0.273   1.875  1.00  0.00     0.000 A 
ENDBRANCH   6   7
ENDBRANCH   1   6
TORSDOF 4
ENDMDL
MODEL 2
REMARK VINA RESULT:      -7.3      0.091      1.723
REMARK SMILES O=C(O)CCc1ccccc1
REMARK SMILES IDX 4 1 2 2 1 3 3 4 5 6 6 7 7 8 11 9 8 10 10 11 9 12
REMARK H PARENT 3 5
REMARK Flexibility Score: inf
ROOT
ATOM      1  C   UNL     1       8.391  -0.669  -2.106  1.00  0.00     0.127 C 
ENDROOT
BRANCH   1   2
ATOM      2  C   UNL     1       8.392  -1.917  -2.889  1.00  0.00     0.303 C 
ATOM      3  O   UNL     1       7.291  -2.416  -3.247  1.00  0.00    -0.252 OA
BRANCH   2   4
ATOM      4  O   UNL     1       9.578  -2.570  -3.253  1.00  0.00    -0.481 OA
ATOM      5  H   UNL     1      10.254  -2.069  -3.814  1.00  0.00     0.296 HD
ENDBRANCH   2   4
ENDBRANCH   1   2
BRANCH   1   6
ATOM      6  C   UNL     1       7.037   0.017  -2.122  1.00  0.00     0.047 C 
BRANCH   6   7
ATOM      7  C   UNL     1       6.477   0.123  -0.749  1.00  0.00    -0.047 A 
ATOM      8  C   UNL     1       6.601  -0.928   0.148  1.00  0.00     0.004 A 
ATOM      9  C   UNL     1       5.805   1.244  -0.299  1.00  0.00     0.004 A 
ATOM     10  C   UNL     1       6.084  -0.866   1.422  1.00  0.00     0.000 A 
ATOM     11  C   UNL     1       5.288   1.305   0.977  1.00  0.00     0.000 A 
ATOM     12  C   UNL     1       5.415   0.258   1.862  1.00  0.00     0.000 A 
ENDBRANCH   6   7
ENDBRANCH   1   6
TORSDOF 4
ENDMDL
MODEL 3
REMARK VINA RESULT:      -6.8      3.387      5.083
REMARK SMILES O=C(O)CCc1ccccc1
REMARK SMILES IDX 4 1 2 2 1 3 3 4 5 6 6 7 7 8 11 9 8 10 10 11 9 12
REMARK H PARENT 3 5
REMARK Flexibility Score: inf
ROOT
ATOM      1  C   UNL     1       5.023   1.708   0.684  1.00  0.00     0.127 C 
ENDROOT
BRANCH   1   2
ATOM      2  C   UNL     1       4.503   1.089   1.916  1.00  0.00     0.303 C 
ATOM      3  O   UNL     1       5.196   0.213   2.502  1.00  0.00    -0.252 OA
BRANCH   2   4
ATOM      4  O   UNL     1       3.261   1.442   2.464  1.00  0.00    -0.481 OA
ATOM      5  H   UNL     1       2.473   0.828   2.310  1.00  0.00     0.296 HD
ENDBRANCH   2   4
ENDBRANCH   1   2
BRANCH   1   6
ATOM      6  C   UNL     1       6.534   1.862   0.714  1.00  0.00     0.047 C 
BRANCH   6   7
ATOM      7  C   UNL     1       7.172   1.061  -0.364  1.00  0.00    -0.047 A 
ATOM      8  C   UNL     1       6.425   0.168  -1.119  1.00  0.00     0.004 A 
ATOM      9  C   UNL     1       8.519   1.149  -0.664  1.00  0.00     0.004 A 
ATOM     10  C   UNL     1       6.988  -0.595  -2.116  1.00  0.00     0.000 A 
ATOM     11  C   UNL     1       9.081   0.384  -1.662  1.00  0.00     0.000 A 
ATOM     12  C   UNL     1       8.334  -0.501  -2.406  1.00  0.00     0.000 A 
ENDBRANCH   6   7
ENDBRANCH   1   6
TORSDOF 4
ENDMDL
MODEL 4
REMARK VINA RESULT:      -6.6      1.945      2.341
REMARK SMILES O=C(O)CCc1ccccc1
REMARK SMILES IDX 4 1 2 2 1 3 3 4 5 6 6 7 7 8 11 9 8 10 10 11 9 12
REMARK H PARENT 3 5
REMARK Flexibility Score: inf
ROOT
ATOM      1  C   UNL     1       8.292   0.131  -2.187  1.00  0.00     0.127 C 
ENDROOT
BRANCH   1   2
ATOM      2  C   UNL     1       9.406   0.337  -1.245  1.00  0.00     0.303 C 
ATOM      3  O   UNL     1       9.480  -0.387  -0.216  1.00  0.00    -0.252 OA
BRANCH   2   4
ATOM      4  O   UNL     1      10.392   1.313  -1.455  1.00  0.00    -0.481 OA
ATOM      5  H   UNL     1      10.118   2.286  -1.444  1.00  0.00     0.296 HD
ENDBRANCH   2   4
ENDBRANCH   1   2
BRANCH   1   6
ATOM      6  C   UNL     1       7.159  -0.668  -1.569  1.00  0.00     0.047 C 
BRANCH   6   7
ATOM      7  C   UNL     1       6.374   0.167  -0.622  1.00  0.00    -0.047 A 
ATOM      8  C   UNL     1       5.856   1.391  -1.020  1.00  0.00     0.004 A 
ATOM      9  C   UNL     1       6.127  -0.215   0.684  1.00  0.00     0.004 A 
ATOM     10  C   UNL     1       5.134   2.191  -0.164  1.00  0.00     0.000 A 
ATOM     11  C   UNL     1       5.403   0.588   1.539  1.00  0.00     0.000 A 
ATOM     12  C   UNL     1       4.894   1.802   1.138  1.00  0.00     0.000 A 
ENDBRANCH   6   7
ENDBRANCH   1   6
TORSDOF 4
ENDMDL
MODEL 5
REMARK VINA RESULT:      -6.6      2.031      2.532
REMARK SMILES O=C(O)CCc1ccccc1
REMARK SMILES IDX 4 1 2 2 1 3 3 4 5 6 6 7 7 8 11 9 8 10 10 11 9 12
REMARK H PARENT 3 5
REMARK Flexibility Score: inf
ROOT
ATOM      1  C   UNL     1       8.048  -2.174   0.720  1.00  0.00     0.127 C 
ENDROOT
BRANCH   1   2
ATOM      2  C   UNL     1       8.784  -3.381   0.304  1.00  0.00     0.303 C 
ATOM      3  O   UNL     1       9.625  -3.888   1.095  1.00  0.00    -0.252 OA
BRANCH   2   4
ATOM      4  O   UNL     1       8.580  -3.988  -0.944  1.00  0.00    -0.481 OA
ATOM      5  H   UNL     1       8.370  -4.977  -0.971  1.00  0.00     0.296 HD
ENDBRANCH   2   4
ENDBRANCH   1   2
BRANCH   1   6
ATOM      6  C   UNL     1       7.355  -1.494  -0.447  1.00  0.00     0.047 C 
BRANCH   6   7
ATOM      7  C   UNL     1       6.520  -0.356   0.019  1.00  0.00    -0.047 A 
ATOM      8  C   UNL     1       6.262   0.721  -0.816  1.00  0.00     0.004 A 
ATOM      9  C   UNL     1       5.973  -0.300   1.288  1.00  0.00     0.004 A 
ATOM     10  C   UNL     1       5.502   1.795  -0.411  1.00  0.00     0.000 A 
ATOM     11  C   UNL     1       5.211   0.776   1.692  1.00  0.00     0.000 A 
ATOM     12  C   UNL     1       4.961   1.842   0.858  1.00  0.00     0.000 A 
ENDBRANCH   6   7
ENDBRANCH   1   6
TORSDOF 4
ENDMDL
