@<TRIPOS>MOLECULE
/home/cewinharhar/GITHUB/reincatalyze/data/processed/docking_pred/2023-Apr-25-2248_maxeplen10_maxtrainstep1000_exh16_gamma099_lrac3e-4_lrcr1e-3/1fd5ec6d4a6889d2560636754963a08404c0587d_ligand_2.pdbqt
 12 12 0 0 0
SMALL
GASTEIGER

@<TRIPOS>ATOM
      1  C          8.2920    0.1310   -2.1870 C.3     1  UNL1        0.1270
      2  C          9.4060    0.3370   -1.2450 C.2     1  UNL1        0.3030
      3  O          9.4800   -0.3870   -0.2160 O.2     1  UNL1       -0.2520
      4  O         10.3920    1.3130   -1.4550 O.3     1  UNL1       -0.4810
      5  H         10.1180    2.2860   -1.4440 H       1  UNL1        0.2960
      6  C          7.1590   -0.6680   -1.5690 C.3     1  UNL1        0.0470
      7  C          6.3740    0.1670   -0.6220 C.2     1  UNL1       -0.0470
      8  C          5.8560    1.3910   -1.0200 C.2     1  UNL1        0.0040
      9  C          6.1270   -0.2150    0.6840 C.2     1  UNL1        0.0040
     10  C          5.1340    2.1910   -0.1640 C.2     1  UNL1        0.0000
     11  C          5.4030    0.5880    1.5390 C.2     1  UNL1        0.0000
     12  C          4.8940    1.8020    1.1380 C.2     1  UNL1        0.0000
@<TRIPOS>BOND
     1     1     6    1
     2     1     2    1
     3     6     7    1
     4     4     5    1
     5     4     2    1
     6     2     3    2
     7     8     7    2
     8     8    10    1
     9     7     9    1
    10    10    12    2
    11     9    11    2
    12    12    11    1
