@<TRIPOS>MOLECULE
/home/cewinharhar/GITHUB/reincatalyze/data/processed/docking_pred/2023-Apr-25-2248_maxeplen10_maxtrainstep1000_exh16_gamma099_lrac3e-4_lrcr1e-3/1fd5ec6d4a6889d2560636754963a08404c0587d_ligand_2.pdbqt
 12 12 0 0 0
SMALL
GASTEIGER

@<TRIPOS>ATOM
      1  C          8.0480   -2.1740    0.7200 C.3     1  UNL1        0.1270
      2  C          8.7840   -3.3810    0.3040 C.2     1  UNL1        0.3030
      3  O          9.6250   -3.8880    1.0950 O.2     1  UNL1       -0.2520
      4  O          8.5800   -3.9880   -0.9440 O.3     1  UNL1       -0.4810
      5  H          8.3700   -4.9770   -0.9710 H       1  UNL1        0.2960
      6  C          7.3550   -1.4940   -0.4470 C.3     1  UNL1        0.0470
      7  C          6.5200   -0.3560    0.0190 C.2     1  UNL1       -0.0470
      8  C          6.2620    0.7210   -0.8160 C.2     1  UNL1        0.0040
      9  C          5.9730   -0.3000    1.2880 C.2     1  UNL1        0.0040
     10  C          5.5020    1.7950   -0.4110 C.2     1  UNL1        0.0000
     11  C          5.2110    0.7760    1.6920 C.2     1  UNL1        0.0000
     12  C          4.9610    1.8420    0.8580 C.2     1  UNL1        0.0000
@<TRIPOS>BOND
     1     5     4    1
     2     4     2    1
     3     8    10    1
     4     8     7    2
     5     6     7    1
     6     6     1    1
     7    10    12    2
     8     7     9    1
     9     2     1    1
    10     2     3    2
    11    12    11    1
    12     9    11    2
