@<TRIPOS>MOLECULE
/home/cewinharhar/GITHUB/reincatalyze/data/processed/docking_pred/2023-Apr-25-2248_maxeplen10_maxtrainstep1000_exh16_gamma099_lrac3e-4_lrcr1e-3/1fd5ec6d4a6889d2560636754963a08404c0587d_ligand_2.pdbqt
 12 12 0 0 0
SMALL
GASTEIGER

@<TRIPOS>ATOM
      1  C          8.4040   -0.6610   -2.1140 C.3     1  UNL1        0.1270
      2  C          8.4350   -1.9110   -2.8930 C.2     1  UNL1        0.3030
      3  O          9.5400   -2.4870   -3.0840 O.2     1  UNL1       -0.2520
      4  O          7.2740   -2.4850   -3.4320 O.3     1  UNL1       -0.4810
      5  H          6.8230   -2.0240   -4.2110 H       1  UNL1        0.2960
      6  C          7.0290   -0.0180   -2.1140 C.3     1  UNL1        0.0470
      7  C          6.4770    0.0600   -0.7360 C.2     1  UNL1       -0.0470
      8  C          5.8220    1.2030   -0.3000 C.2     1  UNL1        0.0040
      9  C          6.5890   -0.9740    0.1750 C.2     1  UNL1        0.0040
     10  C          5.3090    1.3100    0.9720 C.2     1  UNL1        0.0000
     11  C          6.0750   -0.8650    1.4490 C.2     1  UNL1        0.0000
     12  C          5.4280    0.2730    1.8750 C.2     1  UNL1        0.0000
@<TRIPOS>BOND
     1     5     4    1
     2     4     2    1
     3     3     2    2
     4     2     1    1
     5     1     6    1
     6     6     7    1
     7     7     8    2
     8     7     9    1
     9     8    10    1
    10     9    11    2
    11    10    12    2
    12    11    12    1
