@<TRIPOS>MOLECULE
/home/cewinharhar/GITHUB/reincatalyze/data/processed/docking_pred/2023-Apr-25-2248_maxeplen10_maxtrainstep1000_exh16_gamma099_lrac3e-4_lrcr1e-3/1fd5ec6d4a6889d2560636754963a08404c0587d_ligand_2.pdbqt
 12 12 0 0 0
SMALL
GASTEIGER

@<TRIPOS>ATOM
      1  C          8.3910   -0.6690   -2.1060 C.3     1  UNL1        0.1270
      2  C          8.3920   -1.9170   -2.8890 C.2     1  UNL1        0.3030
      3  O          7.2910   -2.4160   -3.2470 O.2     1  UNL1       -0.2520
      4  O          9.5780   -2.5700   -3.2530 O.3     1  UNL1       -0.4810
      5  H         10.2540   -2.0690   -3.8140 H       1  UNL1        0.2960
      6  C          7.0370    0.0170   -2.1220 C.3     1  UNL1        0.0470
      7  C          6.4770    0.1230   -0.7490 C.2     1  UNL1       -0.0470
      8  C          6.6010   -0.9280    0.1480 C.2     1  UNL1        0.0040
      9  C          5.8050    1.2440   -0.2990 C.2     1  UNL1        0.0040
     10  C          6.0840   -0.8660    1.4220 C.2     1  UNL1        0.0000
     11  C          5.2880    1.3050    0.9770 C.2     1  UNL1        0.0000
     12  C          5.4150    0.2580    1.8620 C.2     1  UNL1        0.0000
@<TRIPOS>BOND
     1     5     4    1
     2     4     2    1
     3     3     2    2
     4     2     1    1
     5     6     1    1
     6     6     7    1
     7     7     9    2
     8     7     8    1
     9     9    11    1
    10     8    10    2
    11    11    12    2
    12    10    12    1
