@<TRIPOS>MOLECULE
/home/cewinharhar/GITHUB/reincatalyze/data/processed/docking_pred/2023-Apr-25-2248_maxeplen10_maxtrainstep1000_exh16_gamma099_lrac3e-4_lrcr1e-3/2037f81c995398ea407fbfc0a5ecaefc5001139a_ligand_2.pdbqt
 12 12 0 0 0
SMALL
GASTEIGER

@<TRIPOS>ATOM
      1  C          5.8010    0.9700   -0.0720 C.3     1  UNL1        0.1270
      2  C          5.2480    1.4820    1.1940 C.2     1  UNL1        0.3030
      3  O          5.2130    2.7280    1.3880 O.2     1  UNL1       -0.2520
      4  O          4.7550    0.6310    2.1930 O.3     1  UNL1       -0.4810
      5  H          5.3280   -0.1480    2.4910 H       1  UNL1        0.2960
      6  C          6.4780   -0.3780    0.1010 C.3     1  UNL1        0.0470
      7  C          7.9480   -0.2650   -0.0890 C.2     1  UNL1       -0.0470
      8  C          8.8140   -1.1300    0.5620 C.2     1  UNL1        0.0040
      9  C          8.5260    0.6950   -0.9000 C.2     1  UNL1        0.0040
     10  C         10.1800   -1.0450    0.4150 C.2     1  UNL1        0.0000
     11  C          9.8940    0.7790   -1.0470 C.2     1  UNL1        0.0000
     12  C         10.7470   -0.0830   -0.3960 C.2     1  UNL1        0.0000
@<TRIPOS>BOND
     1    11     9    1
     2    11    12    2
     3     9     7    2
     4    12    10    1
     5     7     6    1
     6     7     8    1
     7     1     6    1
     8     1     2    1
     9    10     8    2
    10     2     3    2
    11     2     4    1
    12     4     5    1
