@<TRIPOS>MOLECULE
/home/cewinharhar/GITHUB/reincatalyze/data/processed/docking_pred/2023-Apr-25-2248_maxeplen10_maxtrainstep1000_exh16_gamma099_lrac3e-4_lrcr1e-3/2037f81c995398ea407fbfc0a5ecaefc5001139a_ligand_2.pdbqt
 12 12 0 0 0
SMALL
GASTEIGER

@<TRIPOS>ATOM
      1  C          8.4810   -0.7640   -1.9930 C.3     1  UNL1        0.1270
      2  C          8.5060   -1.9690   -2.8400 C.2     1  UNL1        0.3030
      3  O          9.6060   -2.5480   -3.0490 O.2     1  UNL1       -0.2520
      4  O          7.3450   -2.4970   -3.4230 O.3     1  UNL1       -0.4810
      5  H          7.1000   -2.2080   -4.3600 H       1  UNL1        0.2960
      6  C          7.1550   -0.0290   -2.0790 C.3     1  UNL1        0.0470
      7  C          6.5360    0.1110   -0.7350 C.2     1  UNL1       -0.0470
      8  C          6.6190   -0.9170    0.1930 C.2     1  UNL1        0.0040
      9  C          5.8460    1.2440   -0.3430 C.2     1  UNL1        0.0040
     10  C          6.0470   -0.8220    1.4410 C.2     1  UNL1        0.0000
     11  C          5.2740    1.3380    0.9070 C.2     1  UNL1        0.0000
     12  C          5.3600    0.3130    1.8220 C.2     1  UNL1        0.0000
@<TRIPOS>BOND
     1     5     4    1
     2     4     2    1
     3     3     2    2
     4     2     1    1
     5     6     1    1
     6     6     7    1
     7     7     9    2
     8     7     8    1
     9     9    11    1
    10     8    10    2
    11    11    12    2
    12    10    12    1
