@<TRIPOS>MOLECULE
/home/cewinharhar/GITHUB/reincatalyze/data/processed/docking_pred/2023-Apr-25-2248_maxeplen10_maxtrainstep1000_exh16_gamma099_lrac3e-4_lrcr1e-3/2037f81c995398ea407fbfc0a5ecaefc5001139a_ligand_2.pdbqt
 12 12 0 0 0
SMALL
GASTEIGER

@<TRIPOS>ATOM
      1  C          4.9980    1.7760    0.7390 C.3     1  UNL1        0.1270
      2  C          4.4790    1.1010    1.9420 C.2     1  UNL1        0.3030
      3  O          5.1740    0.2020    2.4870 O.2     1  UNL1       -0.2520
      4  O          3.2360    1.4260    2.5030 O.3     1  UNL1       -0.4810
      5  H          2.9610    0.9730    3.3650 H       1  UNL1        0.2960
      6  C          6.5090    1.9260    0.7720 C.3     1  UNL1        0.0470
      7  C          7.1460    1.1340   -0.3120 C.2     1  UNL1       -0.0470
      8  C          6.4020    0.2380   -1.0660 C.2     1  UNL1        0.0040
      9  C          8.4910    1.2340   -0.6210 C.2     1  UNL1        0.0040
     10  C          6.9650   -0.5170   -2.0690 C.2     1  UNL1        0.0000
     11  C          9.0530    0.4780   -1.6260 C.2     1  UNL1        0.0000
     12  C          8.3080   -0.4100   -2.3690 C.2     1  UNL1        0.0000
@<TRIPOS>BOND
     1    12    10    2
     2    12    11    1
     3    10     8    1
     4    11     9    2
     5     8     7    2
     6     9     7    1
     7     7     6    1
     8     1     6    1
     9     1     2    1
    10     2     3    2
    11     2     4    1
    12     4     5    1
