@<TRIPOS>MOLECULE
/home/cewinharhar/GITHUB/reincatalyze/data/processed/docking_pred/2023-Apr-25-2248_maxeplen10_maxtrainstep1000_exh16_gamma099_lrac3e-4_lrcr1e-3/2037f81c995398ea407fbfc0a5ecaefc5001139a_ligand_2.pdbqt
 12 12 0 0 0
SMALL
GASTEIGER

@<TRIPOS>ATOM
      1  C          8.6120   -0.4470   -2.0130 C.3     1  UNL1        0.1270
      2  C          8.8870   -1.7550   -2.6340 C.2     1  UNL1        0.3030
      3  O         10.0770   -2.1670   -2.6930 O.2     1  UNL1       -0.2520
      4  O          7.8680   -2.5610   -3.1620 O.3     1  UNL1       -0.4810
      5  H          7.3470   -3.1570   -2.5320 H       1  UNL1        0.2960
      6  C          7.1470   -0.0600   -2.1160 C.3     1  UNL1        0.0470
      7  C          6.5320    0.0600   -0.7680 C.2     1  UNL1       -0.0470
      8  C          5.8670    1.2180   -0.3940 C.2     1  UNL1        0.0040
      9  C          6.5940   -0.9500    0.1750 C.2     1  UNL1        0.0040
     10  C          5.2960    1.3640    0.8490 C.2     1  UNL1        0.0000
     11  C          6.0220   -0.8030    1.4200 C.2     1  UNL1        0.0000
     12  C          5.3640    0.3500    1.7840 C.2     1  UNL1        0.0000
@<TRIPOS>BOND
     1     4     2    1
     2     4     5    1
     3     3     2    2
     4     2     1    1
     5     6     1    1
     6     6     7    1
     7     7     8    2
     8     7     9    1
     9     8    10    1
    10     9    11    2
    11    10    12    2
    12    11    12    1
