MODEL 1
REMARK VINA RESULT:      -7.0      0.000      0.000
REMARK SMILES O=C(O)CCc1ccccc1
REMARK SMILES IDX 4 1 2 2 1 3 3 4 5 6 6 7 7 8 11 9 8 10 10 11 9 12
REMARK H PARENT 3 5
REMARK Flexibility Score: inf
ROOT
ATOM      1  C   UNL     1       8.481  -0.764  -1.993  1.00  0.00     0.127 C 
ENDROOT
BRANCH   1   2
ATOM      2  C   UNL     1       8.506  -1.969  -2.840  1.00  0.00     0.303 C 
ATOM      3  O   UNL     1       9.606  -2.548  -3.049  1.00  0.00    -0.252 OA
BRANCH   2   4
ATOM      4  O   UNL     1       7.345  -2.497  -3.423  1.00  0.00    -0.481 OA
ATOM      5  H   UNL     1       7.100  -2.208  -4.360  1.00  0.00     0.296 HD
ENDBRANCH   2   4
ENDBRANCH   1   2
BRANCH   1   6
ATOM      6  C   UNL     1       7.155  -0.029  -2.079  1.00  0.00     0.047 C 
BRANCH   6   7
ATOM      7  C   UNL     1       6.536   0.111  -0.735  1.00  0.00    -0.047 A 
ATOM      8  C   UNL     1       6.619  -0.917   0.193  1.00  0.00     0.004 A 
ATOM      9  C   UNL     1       5.846   1.244  -0.343  1.00  0.00     0.004 A 
ATOM     10  C   UNL     1       6.047  -0.822   1.441  1.00  0.00     0.000 A 
ATOM     11  C   UNL     1       5.274   1.338   0.907  1.00  0.00     0.000 A 
ATOM     12  C   UNL     1       5.360   0.313   1.822  1.00  0.00     0.000 A 
ENDBRANCH   6   7
ENDBRANCH   1   6
TORSDOF 4
ENDMDL
MODEL 2
REMARK VINA RESULT:      -6.9      0.332      1.459
REMARK SMILES O=C(O)CCc1ccccc1
REMARK SMILES IDX 4 1 2 2 1 3 3 4 5 6 6 7 7 8 11 9 8 10 10 11 9 12
REMARK H PARENT 3 5
REMARK Flexibility Score: inf
ROOT
ATOM      1  C   UNL     1       8.612  -0.447  -2.013  1.00  0.00     0.127 C 
ENDROOT
BRANCH   1   2
ATOM      2  C   UNL     1       8.887  -1.755  -2.634  1.00  0.00     0.303 C 
ATOM      3  O   UNL     1      10.077  -2.167  -2.693  1.00  0.00    -0.252 OA
BRANCH   2   4
ATOM      4  O   UNL     1       7.868  -2.561  -3.162  1.00  0.00    -0.481 OA
ATOM      5  H   UNL     1       7.347  -3.157  -2.532  1.00  0.00     0.296 HD
ENDBRANCH   2   4
ENDBRANCH   1   2
BRANCH   1   6
ATOM      6  C   UNL     1       7.147  -0.060  -2.116  1.00  0.00     0.047 C 
BRANCH   6   7
ATOM      7  C   UNL     1       6.532   0.060  -0.768  1.00  0.00    -0.047 A 
ATOM      8  C   UNL     1       5.867   1.218  -0.394  1.00  0.00     0.004 A 
ATOM      9  C   UNL     1       6.594  -0.950   0.175  1.00  0.00     0.004 A 
ATOM     10  C   UNL     1       5.296   1.364   0.849  1.00  0.00     0.000 A 
ATOM     11  C   UNL     1       6.022  -0.803   1.420  1.00  0.00     0.000 A 
ATOM     12  C   UNL     1       5.364   0.350   1.784  1.00  0.00     0.000 A 
ENDBRANCH   6   7
ENDBRANCH   1   6
TORSDOF 4
ENDMDL
MODEL 3
REMARK VINA RESULT:      -6.7      0.634      1.299
REMARK SMILES O=C(O)CCc1ccccc1
REMARK SMILES IDX 4 1 2 2 1 3 3 4 5 6 6 7 7 8 11 9 8 10 10 11 9 12
REMARK H PARENT 3 5
REMARK Flexibility Score: inf
ROOT
ATOM      1  C   UNL     1       8.755  -1.371  -1.431  1.00  0.00     0.127 C 
ENDROOT
BRANCH   1   2
ATOM      2  C   UNL     1       8.749  -2.135  -2.691  1.00  0.00     0.303 C 
ATOM      3  O   UNL     1       9.840  -2.576  -3.146  1.00  0.00    -0.252 OA
BRANCH   2   4
ATOM      4  O   UNL     1       7.569  -2.391  -3.405  1.00  0.00    -0.481 OA
ATOM      5  H   UNL     1       7.619  -2.975  -4.229  1.00  0.00     0.296 HD
ENDBRANCH   2   4
ENDBRANCH   1   2
BRANCH   1   6
ATOM      6  C   UNL     1       7.616  -1.774  -0.511  1.00  0.00     0.047 C 
BRANCH   6   7
ATOM      7  C   UNL     1       6.789  -0.596  -0.140  1.00  0.00    -0.047 A 
ATOM      8  C   UNL     1       6.240  -0.488   1.130  1.00  0.00     0.004 A 
ATOM      9  C   UNL     1       6.516   0.434  -1.022  1.00  0.00     0.004 A 
ATOM     10  C   UNL     1       5.462   0.585   1.500  1.00  0.00     0.000 A 
ATOM     11  C   UNL     1       5.736   1.508  -0.649  1.00  0.00     0.000 A 
ATOM     12  C   UNL     1       5.194   1.607   0.612  1.00  0.00     0.000 A 
ENDBRANCH   6   7
ENDBRANCH   1   6
TORSDOF 4
ENDMDL
MODEL 4
REMARK VINA RESULT:      -6.7      3.402      5.093
REMARK SMILES O=C(O)CCc1ccccc1
REMARK SMILES IDX 4 1 2 2 1 3 3 4 5 6 6 7 7 8 11 9 8 10 10 11 9 12
REMARK H PARENT 3 5
REMARK Flexibility Score: inf
ROOT
ATOM      1  C   UNL     1       4.998   1.776   0.739  1.00  0.00     0.127 C 
ENDROOT
BRANCH   1   2
ATOM      2  C   UNL     1       4.479   1.101   1.942  1.00  0.00     0.303 C 
ATOM      3  O   UNL     1       5.174   0.202   2.487  1.00  0.00    -0.252 OA
BRANCH   2   4
ATOM      4  O   UNL     1       3.236   1.426   2.503  1.00  0.00    -0.481 OA
ATOM      5  H   UNL     1       2.961   0.973   3.365  1.00  0.00     0.296 HD
ENDBRANCH   2   4
ENDBRANCH   1   2
BRANCH   1   6
ATOM      6  C   UNL     1       6.509   1.926   0.772  1.00  0.00     0.047 C 
BRANCH   6   7
ATOM      7  C   UNL     1       7.146   1.134  -0.312  1.00  0.00    -0.047 A 
ATOM      8  C   UNL     1       6.402   0.238  -1.066  1.00  0.00     0.004 A 
ATOM      9  C   UNL     1       8.491   1.234  -0.621  1.00  0.00     0.004 A 
ATOM     10  C   UNL     1       6.965  -0.517  -2.069  1.00  0.00     0.000 A 
ATOM     11  C   UNL     1       9.053   0.478  -1.626  1.00  0.00     0.000 A 
ATOM     12  C   UNL     1       8.308  -0.410  -2.369  1.00  0.00     0.000 A 
ENDBRANCH   6   7
ENDBRANCH   1   6
TORSDOF 4
ENDMDL
MODEL 5
REMARK VINA RESULT:      -6.5      3.521      4.917
REMARK SMILES O=C(O)CCc1ccccc1
REMARK SMILES IDX 4 1 2 2 1 3 3 4 5 6 6 7 7 8 11 9 8 10 10 11 9 12
REMARK H PARENT 3 5
REMARK Flexibility Score: inf
ROOT
ATOM      1  C   UNL     1       5.801   0.970  -0.072  1.00  0.00     0.127 C 
ENDROOT
BRANCH   1   2
ATOM      2  C   UNL     1       5.248   1.482   1.194  1.00  0.00     0.303 C 
ATOM      3  O   UNL     1       5.213   2.728   1.388  1.00  0.00    -0.252 OA
BRANCH   2   4
ATOM      4  O   UNL     1       4.755   0.631   2.193  1.00  0.00    -0.481 OA
ATOM      5  H   UNL     1       5.328  -0.148   2.491  1.00  0.00     0.296 HD
ENDBRANCH   2   4
ENDBRANCH   1   2
BRANCH   1   6
ATOM      6  C   UNL     1       6.478  -0.378   0.101  1.00  0.00     0.047 C 
BRANCH   6   7
ATOM      7  C   UNL     1       7.948  -0.265  -0.089  1.00  0.00    -0.047 A 
ATOM      8  C   UNL     1       8.814  -1.130   0.562  1.00  0.00     0.004 A 
ATOM      9  C   UNL     1       8.526   0.695  -0.900  1.00  0.00     0.004 A 
ATOM     10  C   UNL     1      10.180  -1.045   0.415  1.00  0.00     0.000 A 
ATOM     11  C   UNL     1       9.894   0.779  -1.047  1.00  0.00     0.000 A 
ATOM     12  C   UNL     1      10.747  -0.083  -0.396  1.00  0.00     0.000 A 
ENDBRANCH   6   7
ENDBRANCH   1   6
TORSDOF 4
ENDMDL
