@<TRIPOS>MOLECULE
/home/cewinharhar/GITHUB/reincatalyze/data/processed/docking_pred/2023-Apr-25-2248_maxeplen10_maxtrainstep1000_exh16_gamma099_lrac3e-4_lrcr1e-3/2037f81c995398ea407fbfc0a5ecaefc5001139a_ligand_2.pdbqt
 12 12 0 0 0
SMALL
GASTEIGER

@<TRIPOS>ATOM
      1  C          8.7550   -1.3710   -1.4310 C.3     1  UNL1        0.1270
      2  C          8.7490   -2.1350   -2.6910 C.2     1  UNL1        0.3030
      3  O          9.8400   -2.5760   -3.1460 O.2     1  UNL1       -0.2520
      4  O          7.5690   -2.3910   -3.4050 O.3     1  UNL1       -0.4810
      5  H          7.6190   -2.9750   -4.2290 H       1  UNL1        0.2960
      6  C          7.6160   -1.7740   -0.5110 C.3     1  UNL1        0.0470
      7  C          6.7890   -0.5960   -0.1400 C.2     1  UNL1       -0.0470
      8  C          6.2400   -0.4880    1.1300 C.2     1  UNL1        0.0040
      9  C          6.5160    0.4340   -1.0220 C.2     1  UNL1        0.0040
     10  C          5.4620    0.5850    1.5000 C.2     1  UNL1        0.0000
     11  C          5.7360    1.5080   -0.6490 C.2     1  UNL1        0.0000
     12  C          5.1940    1.6070    0.6120 C.2     1  UNL1        0.0000
@<TRIPOS>BOND
     1     5     4    1
     2     4     2    1
     3     3     2    2
     4     2     1    1
     5     1     6    1
     6     9    11    1
     7     9     7    2
     8    11    12    2
     9     6     7    1
    10     7     8    1
    11    12    10    1
    12     8    10    2
