@<TRIPOS>MOLECULE
/home/cewinharhar/GITHUB/reincatalyze/data/processed/docking_pred/2023-Apr-25-2248_maxeplen10_maxtrainstep1000_exh16_gamma099_lrac3e-4_lrcr1e-3/21195065f8807259401ec3420f3b6dd683f2acc0_ligand_2.pdbqt
 12 12 0 0 0
SMALL
GASTEIGER

@<TRIPOS>ATOM
      1  C          7.9380   -2.2450    0.7090 C.3     1  UNL1        0.1270
      2  C          8.7570   -3.3980    0.2960 C.2     1  UNL1        0.3030
      3  O          9.6140   -3.8590    1.0980 O.2     1  UNL1       -0.2520
      4  O          8.6150   -4.0040   -0.9610 O.3     1  UNL1       -0.4810
      5  H          7.9980   -4.8010   -1.0470 H       1  UNL1        0.2960
      6  C          7.3870   -1.4770   -0.4790 C.3     1  UNL1        0.0470
      7  C          6.5550   -0.3290   -0.0320 C.2     1  UNL1       -0.0470
      8  C          6.0210   -0.2980    1.2480 C.2     1  UNL1        0.0040
      9  C          6.2620    0.7460   -0.8510 C.2     1  UNL1        0.0040
     10  C          5.2390    0.7450    1.6880 C.2     1  UNL1        0.0000
     11  C          5.4780    1.7900   -0.4090 C.2     1  UNL1        0.0000
     12  C          4.9510    1.8130    0.8620 C.2     1  UNL1        0.0000
@<TRIPOS>BOND
     1     5     4    1
     2     4     2    1
     3     9    11    1
     4     9     7    2
     5     6     7    1
     6     6     1    1
     7    11    12    2
     8     7     8    1
     9     2     1    1
    10     2     3    2
    11    12    10    1
    12     8    10    2
