@<TRIPOS>MOLECULE
/home/cewinharhar/GITHUB/reincatalyze/data/processed/docking_pred/2023-Apr-25-2248_maxeplen10_maxtrainstep1000_exh16_gamma099_lrac3e-4_lrcr1e-3/21195065f8807259401ec3420f3b6dd683f2acc0_ligand_2.pdbqt
 12 12 0 0 0
SMALL
GASTEIGER

@<TRIPOS>ATOM
      1  C          8.3020    0.2340   -2.1180 C.3     1  UNL1        0.1270
      2  C          9.4370    0.3970   -1.1930 C.2     1  UNL1        0.3030
      3  O          9.5130   -0.3480   -0.1780 O.2     1  UNL1       -0.2520
      4  O         10.4410    1.3540   -1.4020 O.3     1  UNL1       -0.4810
      5  H         10.5390    2.1060   -0.7340 H       1  UNL1        0.2960
      6  C          7.1950   -0.6170   -1.5230 C.3     1  UNL1        0.0470
      7  C          6.3860    0.1660   -0.5520 C.2     1  UNL1       -0.0470
      8  C          5.8430    1.3920   -0.9080 C.2     1  UNL1        0.0040
      9  C          6.1410   -0.2670    0.7390 C.2     1  UNL1        0.0040
     10  C          5.0990    2.1450   -0.0290 C.2     1  UNL1        0.0000
     11  C          5.3950    0.4880    1.6180 C.2     1  UNL1        0.0000
     12  C          4.8610    1.7040    1.2570 C.2     1  UNL1        0.0000
@<TRIPOS>BOND
     1     1     6    1
     2     1     2    1
     3     6     7    1
     4     4     2    1
     5     4     5    1
     6     2     3    2
     7     8     7    2
     8     8    10    1
     9     7     9    1
    10    10    12    2
    11     9    11    2
    12    12    11    1
