@<TRIPOS>MOLECULE
/home/cewinharhar/GITHUB/reincatalyze/data/processed/docking_pred/2023-Apr-25-2248_maxeplen10_maxtrainstep1000_exh16_gamma099_lrac3e-4_lrcr1e-3/21195065f8807259401ec3420f3b6dd683f2acc0_ligand_2.pdbqt
 12 12 0 0 0
SMALL
GASTEIGER

@<TRIPOS>ATOM
      1  C          8.3910   -0.7330   -2.0290 C.3     1  UNL1        0.1270
      2  C          8.4180   -1.9390   -2.8750 C.2     1  UNL1        0.3030
      3  O          9.5210   -2.5090   -3.0940 O.2     1  UNL1       -0.2520
      4  O          7.2560   -2.4780   -3.4460 O.3     1  UNL1       -0.4810
      5  H          7.1090   -3.4770   -3.3910 H       1  UNL1        0.2960
      6  C          7.0410   -0.0380   -2.0630 C.3     1  UNL1        0.0470
      7  C          6.4710    0.0860   -0.6960 C.2     1  UNL1       -0.0470
      8  C          6.5700   -0.9610    0.2090 C.2     1  UNL1        0.0040
      9  C          5.8150    1.2220   -0.2590 C.2     1  UNL1        0.0040
     10  C          6.0430   -0.8810    1.4780 C.2     1  UNL1        0.0000
     11  C          5.2890    1.3000    1.0120 C.2     1  UNL1        0.0000
     12  C          5.3890    0.2570    1.9040 C.2     1  UNL1        0.0000
@<TRIPOS>BOND
     1     4     5    1
     2     4     2    1
     3     3     2    2
     4     2     1    1
     5     6     1    1
     6     6     7    1
     7     7     9    2
     8     7     8    1
     9     9    11    1
    10     8    10    2
    11    11    12    2
    12    10    12    1
