@<TRIPOS>MOLECULE
/home/cewinharhar/GITHUB/reincatalyze/data/processed/docking_pred/2023-Apr-25-2248_maxeplen10_maxtrainstep1000_exh16_gamma099_lrac3e-4_lrcr1e-3/21195065f8807259401ec3420f3b6dd683f2acc0_ligand_2.pdbqt
 12 12 0 0 0
SMALL
GASTEIGER

@<TRIPOS>ATOM
      1  C          5.0450    1.7680    0.7580 C.3     1  UNL1        0.1270
      2  C          4.4850    1.0950    1.9440 C.2     1  UNL1        0.3030
      3  O          5.1480    0.1770    2.4980 O.2     1  UNL1       -0.2520
      4  O          3.2370    1.4430    2.4810 O.3     1  UNL1       -0.4810
      5  H          2.7690    0.7800    3.0840 H       1  UNL1        0.2960
      6  C          6.5620    1.8190    0.7910 C.3     1  UNL1        0.0470
      7  C          7.1460    1.0160   -0.3150 C.2     1  UNL1       -0.0470
      8  C          8.4650    1.2000   -0.7030 C.2     1  UNL1        0.0040
      9  C          6.4230    0.0660   -1.0130 C.2     1  UNL1        0.0040
     10  C          9.0320    0.4800   -1.7290 C.2     1  UNL1        0.0000
     11  C          6.9920   -0.6550   -2.0400 C.2     1  UNL1        0.0000
     12  C          8.3010   -0.4650   -2.4210 C.2     1  UNL1        0.0000
@<TRIPOS>BOND
     1    12    11    2
     2    12    10    1
     3    11     9    1
     4    10     8    2
     5     9     7    2
     6     8     7    1
     7     7     6    1
     8     1     6    1
     9     1     2    1
    10     2     4    1
    11     2     3    2
    12     4     5    1
