MODEL 1
REMARK VINA RESULT:      -7.3      0.000      0.000
REMARK SMILES O=C(O)CCc1ccccc1
REMARK SMILES IDX 4 1 2 2 1 3 3 4 5 6 6 7 7 8 11 9 8 10 10 11 9 12
REMARK H PARENT 3 5
REMARK Flexibility Score: inf
ROOT
ATOM      1  C   UNL     1       8.391  -0.733  -2.029  1.00  0.00     0.127 C 
ENDROOT
BRANCH   1   2
ATOM      2  C   UNL     1       8.418  -1.939  -2.875  1.00  0.00     0.303 C 
ATOM      3  O   UNL     1       9.521  -2.509  -3.094  1.00  0.00    -0.252 OA
BRANCH   2   4
ATOM      4  O   UNL     1       7.256  -2.478  -3.446  1.00  0.00    -0.481 OA
ATOM      5  H   UNL     1       7.109  -3.477  -3.391  1.00  0.00     0.296 HD
ENDBRANCH   2   4
ENDBRANCH   1   2
BRANCH   1   6
ATOM      6  C   UNL     1       7.041  -0.038  -2.063  1.00  0.00     0.047 C 
BRANCH   6   7
ATOM      7  C   UNL     1       6.471   0.086  -0.696  1.00  0.00    -0.047 A 
ATOM      8  C   UNL     1       6.570  -0.961   0.209  1.00  0.00     0.004 A 
ATOM      9  C   UNL     1       5.815   1.222  -0.259  1.00  0.00     0.004 A 
ATOM     10  C   UNL     1       6.043  -0.881   1.478  1.00  0.00     0.000 A 
ATOM     11  C   UNL     1       5.289   1.300   1.012  1.00  0.00     0.000 A 
ATOM     12  C   UNL     1       5.389   0.257   1.904  1.00  0.00     0.000 A 
ENDBRANCH   6   7
ENDBRANCH   1   6
TORSDOF 4
ENDMDL
MODEL 2
REMARK VINA RESULT:      -7.3      0.069      1.422
REMARK SMILES O=C(O)CCc1ccccc1
REMARK SMILES IDX 4 1 2 2 1 3 3 4 5 6 6 7 7 8 11 9 8 10 10 11 9 12
REMARK H PARENT 3 5
REMARK Flexibility Score: inf
ROOT
ATOM      1  C   UNL     1       8.427  -0.647  -2.118  1.00  0.00     0.127 C 
ENDROOT
BRANCH   1   2
ATOM      2  C   UNL     1       8.454  -1.896  -2.900  1.00  0.00     0.303 C 
ATOM      3  O   UNL     1       9.561  -2.460  -3.114  1.00  0.00    -0.252 OA
BRANCH   2   4
ATOM      4  O   UNL     1       7.288  -2.482  -3.414  1.00  0.00    -0.481 OA
ATOM      5  H   UNL     1       6.944  -2.168  -4.311  1.00  0.00     0.296 HD
ENDBRANCH   2   4
ENDBRANCH   1   2
BRANCH   1   6
ATOM      6  C   UNL     1       7.053  -0.000  -2.117  1.00  0.00     0.047 C 
BRANCH   6   7
ATOM      7  C   UNL     1       6.499   0.071  -0.740  1.00  0.00    -0.047 A 
ATOM      8  C   UNL     1       5.844   1.212  -0.299  1.00  0.00     0.004 A 
ATOM      9  C   UNL     1       6.609  -0.968   0.165  1.00  0.00     0.004 A 
ATOM     10  C   UNL     1       5.329   1.312   0.973  1.00  0.00     0.000 A 
ATOM     11  C   UNL     1       6.093  -0.866   1.439  1.00  0.00     0.000 A 
ATOM     12  C   UNL     1       5.445   0.270   1.870  1.00  0.00     0.000 A 
ENDBRANCH   6   7
ENDBRANCH   1   6
TORSDOF 4
ENDMDL
MODEL 3
REMARK VINA RESULT:      -6.8      3.393      5.107
REMARK SMILES O=C(O)CCc1ccccc1
REMARK SMILES IDX 4 1 2 2 1 3 3 4 5 6 6 7 7 8 11 9 8 10 10 11 9 12
REMARK H PARENT 3 5
REMARK Flexibility Score: inf
ROOT
ATOM      1  C   UNL     1       5.045   1.768   0.758  1.00  0.00     0.127 C 
ENDROOT
BRANCH   1   2
ATOM      2  C   UNL     1       4.485   1.095   1.944  1.00  0.00     0.303 C 
ATOM      3  O   UNL     1       5.148   0.177   2.498  1.00  0.00    -0.252 OA
BRANCH   2   4
ATOM      4  O   UNL     1       3.237   1.443   2.481  1.00  0.00    -0.481 OA
ATOM      5  H   UNL     1       2.769   0.780   3.084  1.00  0.00     0.296 HD
ENDBRANCH   2   4
ENDBRANCH   1   2
BRANCH   1   6
ATOM      6  C   UNL     1       6.562   1.819   0.791  1.00  0.00     0.047 C 
BRANCH   6   7
ATOM      7  C   UNL     1       7.146   1.016  -0.315  1.00  0.00    -0.047 A 
ATOM      8  C   UNL     1       8.465   1.200  -0.703  1.00  0.00     0.004 A 
ATOM      9  C   UNL     1       6.423   0.066  -1.013  1.00  0.00     0.004 A 
ATOM     10  C   UNL     1       9.032   0.480  -1.729  1.00  0.00     0.000 A 
ATOM     11  C   UNL     1       6.992  -0.655  -2.040  1.00  0.00     0.000 A 
ATOM     12  C   UNL     1       8.301  -0.465  -2.421  1.00  0.00     0.000 A 
ENDBRANCH   6   7
ENDBRANCH   1   6
TORSDOF 4
ENDMDL
MODEL 4
REMARK VINA RESULT:      -6.6      1.979      2.696
REMARK SMILES O=C(O)CCc1ccccc1
REMARK SMILES IDX 4 1 2 2 1 3 3 4 5 6 6 7 7 8 11 9 8 10 10 11 9 12
REMARK H PARENT 3 5
REMARK Flexibility Score: inf
ROOT
ATOM      1  C   UNL     1       8.302   0.234  -2.118  1.00  0.00     0.127 C 
ENDROOT
BRANCH   1   2
ATOM      2  C   UNL     1       9.437   0.397  -1.193  1.00  0.00     0.303 C 
ATOM      3  O   UNL     1       9.513  -0.348  -0.178  1.00  0.00    -0.252 OA
BRANCH   2   4
ATOM      4  O   UNL     1      10.441   1.354  -1.402  1.00  0.00    -0.481 OA
ATOM      5  H   UNL     1      10.539   2.106  -0.734  1.00  0.00     0.296 HD
ENDBRANCH   2   4
ENDBRANCH   1   2
BRANCH   1   6
ATOM      6  C   UNL     1       7.195  -0.617  -1.523  1.00  0.00     0.047 C 
BRANCH   6   7
ATOM      7  C   UNL     1       6.386   0.166  -0.552  1.00  0.00    -0.047 A 
ATOM      8  C   UNL     1       5.843   1.392  -0.908  1.00  0.00     0.004 A 
ATOM      9  C   UNL     1       6.141  -0.267   0.739  1.00  0.00     0.004 A 
ATOM     10  C   UNL     1       5.099   2.145  -0.029  1.00  0.00     0.000 A 
ATOM     11  C   UNL     1       5.395   0.488   1.618  1.00  0.00     0.000 A 
ATOM     12  C   UNL     1       4.861   1.704   1.257  1.00  0.00     0.000 A 
ENDBRANCH   6   7
ENDBRANCH   1   6
TORSDOF 4
ENDMDL
MODEL 5
REMARK VINA RESULT:      -6.6      2.032      2.510
REMARK SMILES O=C(O)CCc1ccccc1
REMARK SMILES IDX 4 1 2 2 1 3 3 4 5 6 6 7 7 8 11 9 8 10 10 11 9 12
REMARK H PARENT 3 5
REMARK Flexibility Score: inf
ROOT
ATOM      1  C   UNL     1       7.938  -2.245   0.709  1.00  0.00     0.127 C 
ENDROOT
BRANCH   1   2
ATOM      2  C   UNL     1       8.757  -3.398   0.296  1.00  0.00     0.303 C 
ATOM      3  O   UNL     1       9.614  -3.859   1.098  1.00  0.00    -0.252 OA
BRANCH   2   4
ATOM      4  O   UNL     1       8.615  -4.004  -0.961  1.00  0.00    -0.481 OA
ATOM      5  H   UNL     1       7.998  -4.801  -1.047  1.00  0.00     0.296 HD
ENDBRANCH   2   4
ENDBRANCH   1   2
BRANCH   1   6
ATOM      6  C   UNL     1       7.387  -1.477  -0.479  1.00  0.00     0.047 C 
BRANCH   6   7
ATOM      7  C   UNL     1       6.555  -0.329  -0.032  1.00  0.00    -0.047 A 
ATOM      8  C   UNL     1       6.021  -0.298   1.248  1.00  0.00     0.004 A 
ATOM      9  C   UNL     1       6.262   0.746  -0.851  1.00  0.00     0.004 A 
ATOM     10  C   UNL     1       5.239   0.745   1.688  1.00  0.00     0.000 A 
ATOM     11  C   UNL     1       5.478   1.790  -0.409  1.00  0.00     0.000 A 
ATOM     12  C   UNL     1       4.951   1.813   0.862  1.00  0.00     0.000 A 
ENDBRANCH   6   7
ENDBRANCH   1   6
TORSDOF 4
ENDMDL
