@<TRIPOS>MOLECULE
/home/cewinharhar/GITHUB/reincatalyze/data/processed/docking_pred/2023-Apr-25-2248_maxeplen10_maxtrainstep1000_exh16_gamma099_lrac3e-4_lrcr1e-3/21195065f8807259401ec3420f3b6dd683f2acc0_ligand_2.pdbqt
 12 12 0 0 0
SMALL
GASTEIGER

@<TRIPOS>ATOM
      1  C          8.4270   -0.6470   -2.1180 C.3     1  UNL1        0.1270
      2  C          8.4540   -1.8960   -2.9000 C.2     1  UNL1        0.3030
      3  O          9.5610   -2.4600   -3.1140 O.2     1  UNL1       -0.2520
      4  O          7.2880   -2.4820   -3.4140 O.3     1  UNL1       -0.4810
      5  H          6.9440   -2.1680   -4.3110 H       1  UNL1        0.2960
      6  C          7.0530   -0.0000   -2.1170 C.3     1  UNL1        0.0470
      7  C          6.4990    0.0710   -0.7400 C.2     1  UNL1       -0.0470
      8  C          5.8440    1.2120   -0.2990 C.2     1  UNL1        0.0040
      9  C          6.6090   -0.9680    0.1650 C.2     1  UNL1        0.0040
     10  C          5.3290    1.3120    0.9730 C.2     1  UNL1        0.0000
     11  C          6.0930   -0.8660    1.4390 C.2     1  UNL1        0.0000
     12  C          5.4450    0.2700    1.8700 C.2     1  UNL1        0.0000
@<TRIPOS>BOND
     1     5     4    1
     2     4     2    1
     3     3     2    2
     4     2     1    1
     5     1     6    1
     6     6     7    1
     7     7     8    2
     8     7     9    1
     9     8    10    1
    10     9    11    2
    11    10    12    2
    12    11    12    1
