MODEL 1
REMARK VINA RESULT:      -7.3      0.000      0.000
REMARK SMILES O=C(O)CCc1ccccc1
REMARK SMILES IDX 4 1 2 2 1 3 3 4 5 6 6 7 7 8 11 9 8 10 10 11 9 12
REMARK H PARENT 3 5
REMARK Flexibility Score: inf
ROOT
ATOM      1  C   UNL     1       8.418  -0.697  -2.096  1.00  0.00     0.127 C 
ENDROOT
BRANCH   1   2
ATOM      2  C   UNL     1       8.446  -1.936  -2.893  1.00  0.00     0.303 C 
ATOM      3  O   UNL     1       9.551  -2.512  -3.092  1.00  0.00    -0.252 OA
BRANCH   2   4
ATOM      4  O   UNL     1       7.284  -2.501  -3.440  1.00  0.00    -0.481 OA
ATOM      5  H   UNL     1       7.381  -3.210  -4.154  1.00  0.00     0.296 HD
ENDBRANCH   2   4
ENDBRANCH   1   2
BRANCH   1   6
ATOM      6  C   UNL     1       7.057  -0.025  -2.128  1.00  0.00     0.047 C 
BRANCH   6   7
ATOM      7  C   UNL     1       6.490   0.095  -0.759  1.00  0.00    -0.047 A 
ATOM      8  C   UNL     1       6.604  -0.949   0.148  1.00  0.00     0.004 A 
ATOM      9  C   UNL     1       5.823   1.225  -0.322  1.00  0.00     0.004 A 
ATOM     10  C   UNL     1       6.081  -0.873   1.419  1.00  0.00     0.000 A 
ATOM     11  C   UNL     1       5.300   1.300   0.951  1.00  0.00     0.000 A 
ATOM     12  C   UNL     1       5.415   0.259   1.845  1.00  0.00     0.000 A 
ENDBRANCH   6   7
ENDBRANCH   1   6
TORSDOF 4
ENDMDL
MODEL 2
REMARK VINA RESULT:      -7.3      0.056      1.422
REMARK SMILES O=C(O)CCc1ccccc1
REMARK SMILES IDX 4 1 2 2 1 3 3 4 5 6 6 7 7 8 11 9 8 10 10 11 9 12
REMARK H PARENT 3 5
REMARK Flexibility Score: inf
ROOT
ATOM      1  C   UNL     1       8.404  -0.679  -2.114  1.00  0.00     0.127 C 
ENDROOT
BRANCH   1   2
ATOM      2  C   UNL     1       8.436  -1.936  -2.882  1.00  0.00     0.303 C 
ATOM      3  O   UNL     1       9.539  -2.524  -3.049  1.00  0.00    -0.252 OA
BRANCH   2   4
ATOM      4  O   UNL     1       7.279  -2.504  -3.435  1.00  0.00    -0.481 OA
ATOM      5  H   UNL     1       6.400  -2.017  -3.322  1.00  0.00     0.296 HD
ENDBRANCH   2   4
ENDBRANCH   1   2
BRANCH   1   6
ATOM      6  C   UNL     1       7.024  -0.046  -2.105  1.00  0.00     0.047 C 
BRANCH   6   7
ATOM      7  C   UNL     1       6.479   0.025  -0.724  1.00  0.00    -0.047 A 
ATOM      8  C   UNL     1       5.833   1.168  -0.276  1.00  0.00     0.004 A 
ATOM      9  C   UNL     1       6.591  -1.016   0.179  1.00  0.00     0.004 A 
ATOM     10  C   UNL     1       5.327   1.269   0.999  1.00  0.00     0.000 A 
ATOM     11  C   UNL     1       6.084  -0.913   1.457  1.00  0.00     0.000 A 
ATOM     12  C   UNL     1       5.445   0.225   1.894  1.00  0.00     0.000 A 
ENDBRANCH   6   7
ENDBRANCH   1   6
TORSDOF 4
ENDMDL
MODEL 3
REMARK VINA RESULT:      -6.9      0.672      1.606
REMARK SMILES O=C(O)CCc1ccccc1
REMARK SMILES IDX 4 1 2 2 1 3 3 4 5 6 6 7 7 8 11 9 8 10 10 11 9 12
REMARK H PARENT 3 5
REMARK Flexibility Score: inf
ROOT
ATOM      1  C   UNL     1       8.305  -0.661  -2.143  1.00  0.00     0.127 C 
ENDROOT
BRANCH   1   2
ATOM      2  C   UNL     1       8.393  -1.913  -2.917  1.00  0.00     0.303 C 
ATOM      3  O   UNL     1       9.519  -2.460  -3.070  1.00  0.00    -0.252 OA
BRANCH   2   4
ATOM      4  O   UNL     1       7.265  -2.519  -3.488  1.00  0.00    -0.481 OA
ATOM      5  H   UNL     1       6.459  -1.944  -3.694  1.00  0.00     0.296 HD
ENDBRANCH   2   4
ENDBRANCH   1   2
BRANCH   1   6
ATOM      6  C   UNL     1       8.176  -0.916  -0.652  1.00  0.00     0.047 C 
BRANCH   6   7
ATOM      7  C   UNL     1       7.079  -0.102  -0.066  1.00  0.00    -0.047 A 
ATOM      8  C   UNL     1       6.481   0.912  -0.800  1.00  0.00     0.004 A 
ATOM      9  C   UNL     1       6.607  -0.297   1.219  1.00  0.00     0.004 A 
ATOM     10  C   UNL     1       5.470   1.690  -0.282  1.00  0.00     0.000 A 
ATOM     11  C   UNL     1       5.595   0.483   1.736  1.00  0.00     0.000 A 
ATOM     12  C   UNL     1       5.007   1.488   1.003  1.00  0.00     0.000 A 
ENDBRANCH   6   7
ENDBRANCH   1   6
TORSDOF 4
ENDMDL
MODEL 4
REMARK VINA RESULT:      -6.8      3.399      5.100
REMARK SMILES O=C(O)CCc1ccccc1
REMARK SMILES IDX 4 1 2 2 1 3 3 4 5 6 6 7 7 8 11 9 8 10 10 11 9 12
REMARK H PARENT 3 5
REMARK Flexibility Score: inf
ROOT
ATOM      1  C   UNL     1       4.994   1.784   0.724  1.00  0.00     0.127 C 
ENDROOT
BRANCH   1   2
ATOM      2  C   UNL     1       4.472   1.111   1.927  1.00  0.00     0.303 C 
ATOM      3  O   UNL     1       5.164   0.208   2.472  1.00  0.00    -0.252 OA
BRANCH   2   4
ATOM      4  O   UNL     1       3.231   1.441   2.490  1.00  0.00    -0.481 OA
ATOM      5  H   UNL     1       2.563   0.700   2.655  1.00  0.00     0.296 HD
ENDBRANCH   2   4
ENDBRANCH   1   2
BRANCH   1   6
ATOM      6  C   UNL     1       6.507   1.903   0.744  1.00  0.00     0.047 C 
BRANCH   6   7
ATOM      7  C   UNL     1       7.120   1.084  -0.335  1.00  0.00    -0.047 A 
ATOM      8  C   UNL     1       8.466   1.217  -0.646  1.00  0.00     0.004 A 
ATOM      9  C   UNL     1       6.399   0.171  -1.083  1.00  0.00     0.004 A 
ATOM     10  C   UNL     1       9.060   0.482  -1.647  1.00  0.00     0.000 A 
ATOM     11  C   UNL     1       6.996  -0.565  -2.084  1.00  0.00     0.000 A 
ATOM     12  C   UNL     1       8.331  -0.426  -2.388  1.00  0.00     0.000 A 
ENDBRANCH   6   7
ENDBRANCH   1   6
TORSDOF 4
ENDMDL
MODEL 5
REMARK VINA RESULT:      -6.6      2.003      2.680
REMARK SMILES O=C(O)CCc1ccccc1
REMARK SMILES IDX 4 1 2 2 1 3 3 4 5 6 6 7 7 8 11 9 8 10 10 11 9 12
REMARK H PARENT 3 5
REMARK Flexibility Score: inf
ROOT
ATOM      1  C   UNL     1       8.359  -0.143  -2.071  1.00  0.00     0.127 C 
ENDROOT
BRANCH   1   2
ATOM      2  C   UNL     1       9.434   0.267  -1.150  1.00  0.00     0.303 C 
ATOM      3  O   UNL     1       9.566  -0.342  -0.054  1.00  0.00    -0.252 OA
BRANCH   2   4
ATOM      4  O   UNL     1      10.319   1.312  -1.452  1.00  0.00    -0.481 OA
ATOM      5  H   UNL     1      11.106   1.120  -2.056  1.00  0.00     0.296 HD
ENDBRANCH   2   4
ENDBRANCH   1   2
BRANCH   1   6
ATOM      6  C   UNL     1       7.245  -0.887  -1.358  1.00  0.00     0.047 C 
BRANCH   6   7
ATOM      7  C   UNL     1       6.439   0.038  -0.518  1.00  0.00    -0.047 A 
ATOM      8  C   UNL     1       5.949   1.225  -1.043  1.00  0.00     0.004 A 
ATOM      9  C   UNL     1       6.146  -0.220   0.809  1.00  0.00     0.004 A 
ATOM     10  C   UNL     1       5.209   2.107  -0.289  1.00  0.00     0.000 A 
ATOM     11  C   UNL     1       5.405   0.665   1.563  1.00  0.00     0.000 A 
ATOM     12  C   UNL     1       4.923   1.841   1.035  1.00  0.00     0.000 A 
ENDBRANCH   6   7
ENDBRANCH   1   6
TORSDOF 4
ENDMDL
