@<TRIPOS>MOLECULE
/home/cewinharhar/GITHUB/reincatalyze/data/processed/docking_pred/2023-Apr-25-2248_maxeplen10_maxtrainstep1000_exh16_gamma099_lrac3e-4_lrcr1e-3/22478e644e92021fed45641255b53d2cc77f0790_ligand_2.pdbqt
 12 12 0 0 0
SMALL
GASTEIGER

@<TRIPOS>ATOM
      1  C          8.3050   -0.6610   -2.1430 C.3     1  UNL1        0.1270
      2  C          8.3930   -1.9130   -2.9170 C.2     1  UNL1        0.3030
      3  O          9.5190   -2.4600   -3.0700 O.2     1  UNL1       -0.2520
      4  O          7.2650   -2.5190   -3.4880 O.3     1  UNL1       -0.4810
      5  H          6.4590   -1.9440   -3.6940 H       1  UNL1        0.2960
      6  C          8.1760   -0.9160   -0.6520 C.3     1  UNL1        0.0470
      7  C          7.0790   -0.1020   -0.0660 C.2     1  UNL1       -0.0470
      8  C          6.4810    0.9120   -0.8000 C.2     1  UNL1        0.0040
      9  C          6.6070   -0.2970    1.2190 C.2     1  UNL1        0.0040
     10  C          5.4700    1.6900   -0.2820 C.2     1  UNL1        0.0000
     11  C          5.5950    0.4830    1.7360 C.2     1  UNL1        0.0000
     12  C          5.0070    1.4880    1.0030 C.2     1  UNL1        0.0000
@<TRIPOS>BOND
     1     5     4    1
     2     4     2    1
     3     3     2    2
     4     2     1    1
     5     1     6    1
     6     8    10    1
     7     8     7    2
     8     6     7    1
     9    10    12    2
    10     7     9    1
    11    12    11    1
    12     9    11    2
