@<TRIPOS>MOLECULE
/home/cewinharhar/GITHUB/reincatalyze/data/processed/docking_pred/2023-Apr-25-2248_maxeplen10_maxtrainstep1000_exh16_gamma099_lrac3e-4_lrcr1e-3/22478e644e92021fed45641255b53d2cc77f0790_ligand_2.pdbqt
 12 12 0 0 0
SMALL
GASTEIGER

@<TRIPOS>ATOM
      1  C          8.4180   -0.6970   -2.0960 C.3     1  UNL1        0.1270
      2  C          8.4460   -1.9360   -2.8930 C.2     1  UNL1        0.3030
      3  O          9.5510   -2.5120   -3.0920 O.2     1  UNL1       -0.2520
      4  O          7.2840   -2.5010   -3.4400 O.3     1  UNL1       -0.4810
      5  H          7.3810   -3.2100   -4.1540 H       1  UNL1        0.2960
      6  C          7.0570   -0.0250   -2.1280 C.3     1  UNL1        0.0470
      7  C          6.4900    0.0950   -0.7590 C.2     1  UNL1       -0.0470
      8  C          6.6040   -0.9490    0.1480 C.2     1  UNL1        0.0040
      9  C          5.8230    1.2250   -0.3220 C.2     1  UNL1        0.0040
     10  C          6.0810   -0.8730    1.4190 C.2     1  UNL1        0.0000
     11  C          5.3000    1.3000    0.9510 C.2     1  UNL1        0.0000
     12  C          5.4150    0.2590    1.8450 C.2     1  UNL1        0.0000
@<TRIPOS>BOND
     1     5     4    1
     2     4     2    1
     3     3     2    2
     4     2     1    1
     5     6     1    1
     6     6     7    1
     7     7     9    2
     8     7     8    1
     9     9    11    1
    10     8    10    2
    11    11    12    2
    12    10    12    1
