@<TRIPOS>MOLECULE
/home/cewinharhar/GITHUB/reincatalyze/data/processed/docking_pred/2023-Apr-25-2248_maxeplen10_maxtrainstep1000_exh16_gamma099_lrac3e-4_lrcr1e-3/22478e644e92021fed45641255b53d2cc77f0790_ligand_2.pdbqt
 12 12 0 0 0
SMALL
GASTEIGER

@<TRIPOS>ATOM
      1  C          4.9940    1.7840    0.7240 C.3     1  UNL1        0.1270
      2  C          4.4720    1.1110    1.9270 C.2     1  UNL1        0.3030
      3  O          5.1640    0.2080    2.4720 O.2     1  UNL1       -0.2520
      4  O          3.2310    1.4410    2.4900 O.3     1  UNL1       -0.4810
      5  H          2.5630    0.7000    2.6550 H       1  UNL1        0.2960
      6  C          6.5070    1.9030    0.7440 C.3     1  UNL1        0.0470
      7  C          7.1200    1.0840   -0.3350 C.2     1  UNL1       -0.0470
      8  C          8.4660    1.2170   -0.6460 C.2     1  UNL1        0.0040
      9  C          6.3990    0.1710   -1.0830 C.2     1  UNL1        0.0040
     10  C          9.0600    0.4820   -1.6470 C.2     1  UNL1        0.0000
     11  C          6.9960   -0.5650   -2.0840 C.2     1  UNL1        0.0000
     12  C          8.3310   -0.4260   -2.3880 C.2     1  UNL1        0.0000
@<TRIPOS>BOND
     1    12    11    2
     2    12    10    1
     3    11     9    1
     4    10     8    2
     5     9     7    2
     6     8     7    1
     7     7     6    1
     8     1     6    1
     9     1     2    1
    10     2     3    2
    11     2     4    1
    12     4     5    1
