@<TRIPOS>MOLECULE
/home/cewinharhar/GITHUB/reincatalyze/data/processed/docking_pred/2023-Apr-25-2248_maxeplen10_maxtrainstep1000_exh16_gamma099_lrac3e-4_lrcr1e-3/22478e644e92021fed45641255b53d2cc77f0790_ligand_2.pdbqt
 12 12 0 0 0
SMALL
GASTEIGER

@<TRIPOS>ATOM
      1  C          8.3590   -0.1430   -2.0710 C.3     1  UNL1        0.1270
      2  C          9.4340    0.2670   -1.1500 C.2     1  UNL1        0.3030
      3  O          9.5660   -0.3420   -0.0540 O.2     1  UNL1       -0.2520
      4  O         10.3190    1.3120   -1.4520 O.3     1  UNL1       -0.4810
      5  H         11.1060    1.1200   -2.0560 H       1  UNL1        0.2960
      6  C          7.2450   -0.8870   -1.3580 C.3     1  UNL1        0.0470
      7  C          6.4390    0.0380   -0.5180 C.2     1  UNL1       -0.0470
      8  C          5.9490    1.2250   -1.0430 C.2     1  UNL1        0.0040
      9  C          6.1460   -0.2200    0.8090 C.2     1  UNL1        0.0040
     10  C          5.2090    2.1070   -0.2890 C.2     1  UNL1        0.0000
     11  C          5.4050    0.6650    1.5630 C.2     1  UNL1        0.0000
     12  C          4.9230    1.8410    1.0350 C.2     1  UNL1        0.0000
@<TRIPOS>BOND
     1     1     6    1
     2     1     2    1
     3     5     4    1
     4     4     2    1
     5     6     7    1
     6     2     3    2
     7     8     7    2
     8     8    10    1
     9     7     9    1
    10    10    12    2
    11     9    11    2
    12    12    11    1
