@<TRIPOS>MOLECULE
/home/cewinharhar/GITHUB/reincatalyze/data/processed/docking_pred/2023-Apr-25-2248_maxeplen10_maxtrainstep1000_exh16_gamma099_lrac3e-4_lrcr1e-3/22478e644e92021fed45641255b53d2cc77f0790_ligand_2.pdbqt
 12 12 0 0 0
SMALL
GASTEIGER

@<TRIPOS>ATOM
      1  C          8.4040   -0.6790   -2.1140 C.3     1  UNL1        0.1270
      2  C          8.4360   -1.9360   -2.8820 C.2     1  UNL1        0.3030
      3  O          9.5390   -2.5240   -3.0490 O.2     1  UNL1       -0.2520
      4  O          7.2790   -2.5040   -3.4350 O.3     1  UNL1       -0.4810
      5  H          6.4000   -2.0170   -3.3220 H       1  UNL1        0.2960
      6  C          7.0240   -0.0460   -2.1050 C.3     1  UNL1        0.0470
      7  C          6.4790    0.0250   -0.7240 C.2     1  UNL1       -0.0470
      8  C          5.8330    1.1680   -0.2760 C.2     1  UNL1        0.0040
      9  C          6.5910   -1.0160    0.1790 C.2     1  UNL1        0.0040
     10  C          5.3270    1.2690    0.9990 C.2     1  UNL1        0.0000
     11  C          6.0840   -0.9130    1.4570 C.2     1  UNL1        0.0000
     12  C          5.4450    0.2250    1.8940 C.2     1  UNL1        0.0000
@<TRIPOS>BOND
     1     4     5    1
     2     4     2    1
     3     3     2    2
     4     2     1    1
     5     1     6    1
     6     6     7    1
     7     7     8    2
     8     7     9    1
     9     8    10    1
    10     9    11    2
    11    10    12    2
    12    11    12    1
