@<TRIPOS>MOLECULE
/home/cewinharhar/GITHUB/reincatalyze/data/processed/docking_pred/2023-Apr-25-2248_maxeplen10_maxtrainstep1000_exh16_gamma099_lrac3e-4_lrcr1e-3/225d7738cc918e3754e3779366d54ccb252183f1_ligand_2.pdbqt
 12 12 0 0 0
SMALL
GASTEIGER

@<TRIPOS>ATOM
      1  C          8.5000    0.6620   -1.6890 C.3     1  UNL1        0.1270
      2  C          9.6530    0.2990   -0.8460 C.2     1  UNL1        0.3030
      3  O          9.4830   -0.5080    0.1080 O.2     1  UNL1       -0.2520
      4  O         10.9350    0.8210   -1.0680 O.3     1  UNL1       -0.4810
      5  H         11.7360    0.2730   -0.7830 H       1  UNL1        0.2960
      6  C          7.3080   -0.2490   -1.4540 C.3     1  UNL1        0.0470
      7  C          6.4210    0.2960   -0.3940 C.2     1  UNL1       -0.0470
      8  C          5.7840    1.5170   -0.5630 C.2     1  UNL1        0.0040
      9  C          6.1910   -0.3600    0.8010 C.2     1  UNL1        0.0040
     10  C          4.9650    2.0540    0.4040 C.2     1  UNL1        0.0000
     11  C          5.3710    0.1790    1.7680 C.2     1  UNL1        0.0000
     12  C          4.7430    1.3910    1.5940 C.2     1  UNL1        0.0000
@<TRIPOS>BOND
     1     1     6    1
     2     1     2    1
     3     6     7    1
     4     4     2    1
     5     4     5    1
     6     2     3    2
     7     8     7    2
     8     8    10    1
     9     7     9    1
    10    10    12    2
    11     9    11    2
    12    12    11    1
