@<TRIPOS>MOLECULE
/home/cewinharhar/GITHUB/reincatalyze/data/processed/docking_pred/2023-Apr-25-2248_maxeplen10_maxtrainstep1000_exh16_gamma099_lrac3e-4_lrcr1e-3/225d7738cc918e3754e3779366d54ccb252183f1_ligand_2.pdbqt
 12 12 0 0 0
SMALL
GASTEIGER

@<TRIPOS>ATOM
      1  C          4.9940    1.8200    0.7380 C.3     1  UNL1        0.1270
      2  C          4.4660    1.1240    1.9250 C.2     1  UNL1        0.3030
      3  O          5.1540    0.2080    2.4540 O.2     1  UNL1       -0.2520
      4  O          3.2240    1.4460    2.4890 O.3     1  UNL1       -0.4810
      5  H          2.5370    1.9120    1.9130 H       1  UNL1        0.2960
      6  C          6.5090    1.9200    0.7580 C.3     1  UNL1        0.0470
      7  C          7.1110    1.1030   -0.3280 C.2     1  UNL1       -0.0470
      8  C          8.4580    1.2220   -0.6390 C.2     1  UNL1        0.0040
      9  C          6.3790    0.2050   -1.0830 C.2     1  UNL1        0.0040
     10  C          9.0430    0.4880   -1.6450 C.2     1  UNL1        0.0000
     11  C          6.9660   -0.5290   -2.0910 C.2     1  UNL1        0.0000
     12  C          8.3030   -0.4050   -2.3940 C.2     1  UNL1        0.0000
@<TRIPOS>BOND
     1    12    11    2
     2    12    10    1
     3    11     9    1
     4    10     8    2
     5     9     7    2
     6     8     7    1
     7     7     6    1
     8     1     6    1
     9     1     2    1
    10     5     4    1
    11     2     3    2
    12     2     4    1
