@<TRIPOS>MOLECULE
/home/cewinharhar/GITHUB/reincatalyze/data/processed/docking_pred/2023-Apr-25-2248_maxeplen10_maxtrainstep1000_exh16_gamma099_lrac3e-4_lrcr1e-3/225d7738cc918e3754e3779366d54ccb252183f1_ligand_2.pdbqt
 12 12 0 0 0
SMALL
GASTEIGER

@<TRIPOS>ATOM
      1  C          8.4000   -0.6850   -2.1000 C.3     1  UNL1        0.1270
      2  C          8.4320   -1.9360   -2.8780 C.2     1  UNL1        0.3030
      3  O          9.5330   -2.5320   -3.0330 O.2     1  UNL1       -0.2520
      4  O          7.2790   -2.4910   -3.4510 O.3     1  UNL1       -0.4810
      5  H          7.2980   -3.4610   -3.7330 H       1  UNL1        0.2960
      6  C          7.0250   -0.0410   -2.1060 C.3     1  UNL1        0.0470
      7  C          6.4750    0.0540   -0.7290 C.2     1  UNL1       -0.0470
      8  C          6.6100   -1.0020    0.1610 C.2     1  UNL1        0.0040
      9  C          5.8020    1.1700   -0.2670 C.2     1  UNL1        0.0040
     10  C          6.1030   -0.9500    1.4390 C.2     1  UNL1        0.0000
     11  C          5.2950    1.2210    1.0140 C.2     1  UNL1        0.0000
     12  C          5.4310    0.1690    1.8900 C.2     1  UNL1        0.0000
@<TRIPOS>BOND
     1     5     4    1
     2     4     2    1
     3     3     2    2
     4     2     1    1
     5     6     1    1
     6     6     7    1
     7     7     9    2
     8     7     8    1
     9     9    11    1
    10     8    10    2
    11    11    12    2
    12    10    12    1
