@<TRIPOS>MOLECULE
/home/cewinharhar/GITHUB/reincatalyze/data/processed/docking_pred/2023-Apr-25-2248_maxeplen10_maxtrainstep1000_exh16_gamma099_lrac3e-4_lrcr1e-3/225d7738cc918e3754e3779366d54ccb252183f1_ligand_2.pdbqt
 12 12 0 0 0
SMALL
GASTEIGER

@<TRIPOS>ATOM
      1  C          8.3850   -0.6180   -2.1730 C.3     1  UNL1        0.1270
      2  C          8.3940   -1.8970   -2.9050 C.2     1  UNL1        0.3030
      3  O          7.2960   -2.4160   -3.2440 O.2     1  UNL1       -0.2520
      4  O          9.5840   -2.5580   -3.2410 O.3     1  UNL1       -0.4810
      5  H         10.3200   -2.6100   -2.5500 H       1  UNL1        0.2960
      6  C          7.0080    0.0210   -2.1510 C.3     1  UNL1        0.0470
      7  C          6.4700    0.0800   -0.7670 C.2     1  UNL1       -0.0470
      8  C          5.7970    1.2060   -0.3160 C.2     1  UNL1        0.0040
      9  C          6.6140   -0.9570    0.1370 C.2     1  UNL1        0.0040
     10  C          5.2960    1.2950    0.9620 C.2     1  UNL1        0.0000
     11  C          6.1120   -0.8670    1.4170 C.2     1  UNL1        0.0000
     12  C          5.4460    0.2550    1.8570 C.2     1  UNL1        0.0000
@<TRIPOS>BOND
     1     3     2    2
     2     4     2    1
     3     4     5    1
     4     2     1    1
     5     1     6    1
     6     6     7    1
     7     7     8    2
     8     7     9    1
     9     8    10    1
    10     9    11    2
    11    10    12    2
    12    11    12    1
