@<TRIPOS>MOLECULE
/home/cewinharhar/GITHUB/reincatalyze/data/processed/docking_pred/2023-Apr-25-2248_maxeplen10_maxtrainstep1000_exh16_gamma099_lrac3e-4_lrcr1e-3/225d7738cc918e3754e3779366d54ccb252183f1_ligand_2.pdbqt
 12 12 0 0 0
SMALL
GASTEIGER

@<TRIPOS>ATOM
      1  C          5.2990    2.8360    0.1320 C.3     1  UNL1        0.1270
      2  C          6.1690    3.7720    0.8670 C.2     1  UNL1        0.3030
      3  O          6.2570    3.6700    2.1210 O.2     1  UNL1       -0.2520
      4  O          6.9050    4.7750    0.2190 O.3     1  UNL1       -0.4810
      5  H          7.8510    4.9550    0.5270 H       1  UNL1        0.2960
      6  C          5.2040    1.4840    0.8160 C.3     1  UNL1        0.0470
      7  C          6.0310    0.4710    0.1110 C.2     1  UNL1       -0.0470
      8  C          6.3350    0.6180   -1.2350 C.2     1  UNL1        0.0040
      9  C          6.5270   -0.6580    0.7370 C.2     1  UNL1        0.0040
     10  C          7.0900   -0.3080   -1.9180 C.2     1  UNL1        0.0000
     11  C          7.2830   -1.5840    0.0510 C.2     1  UNL1        0.0000
     12  C          7.5790   -1.4320   -1.2840 C.2     1  UNL1        0.0000
@<TRIPOS>BOND
     1    10    12    2
     2    10     8    1
     3    12    11    1
     4     8     7    2
     5    11     9    2
     6     7     9    1
     7     7     6    1
     8     1     6    1
     9     1     2    1
    10     4     5    1
    11     4     2    1
    12     2     3    2
