@<TRIPOS>MOLECULE
/home/cewinharhar/GITHUB/reincatalyze/data/processed/docking_pred/2023-Apr-25-2248_maxeplen10_maxtrainstep1000_exh16_gamma099_lrac3e-4_lrcr1e-3/2368d29bb7bbfa5e31d33bb3936e2ea89938fe66_ligand_2.pdbqt
 12 12 0 0 0
SMALL
GASTEIGER

@<TRIPOS>ATOM
      1  C          8.1370   -2.0770    0.9450 C.3     1  UNL1        0.1270
      2  C          8.4230   -3.5100    1.1350 C.2     1  UNL1        0.3030
      3  O          9.5990   -3.9290    0.9550 O.2     1  UNL1       -0.2520
      4  O          7.4320   -4.4270    1.5110 O.3     1  UNL1       -0.4810
      5  H          7.1620   -4.4760    2.4840 H       1  UNL1        0.2960
      6  C          6.8080   -1.6710    1.5560 C.3     1  UNL1        0.0470
      7  C          6.2930   -0.4250    0.9320 C.2     1  UNL1       -0.0470
      8  C          5.5100    0.4600    1.6590 C.2     1  UNL1        0.0040
      9  C          6.5500   -0.0850   -0.3840 C.2     1  UNL1        0.0040
     10  C          5.0100    1.6170    1.1070 C.2     1  UNL1        0.0000
     11  C          6.0480    1.0740   -0.9360 C.2     1  UNL1        0.0000
     12  C          5.2710    1.9460   -0.2080 C.2     1  UNL1        0.0000
@<TRIPOS>BOND
     1    11     9    1
     2    11    12    2
     3     9     7    2
     4    12    10    1
     5     7     6    1
     6     7     8    1
     7     1     2    1
     8     1     6    1
     9     3     2    2
    10    10     8    2
    11     2     4    1
    12     4     5    1
