MODEL 1
REMARK VINA RESULT:      -7.2      0.000      0.000
REMARK SMILES O=C(O)CCc1ccccc1
REMARK SMILES IDX 4 1 2 2 1 3 3 4 5 6 6 7 7 8 11 9 8 10 10 11 9 12
REMARK H PARENT 3 5
REMARK Flexibility Score: inf
ROOT
ATOM      1  C   UNL     1       8.374  -0.669  -2.092  1.00  0.00     0.127 C 
ENDROOT
BRANCH   1   2
ATOM      2  C   UNL     1       8.384  -1.911  -2.886  1.00  0.00     0.303 C 
ATOM      3  O   UNL     1       7.287  -2.407  -3.261  1.00  0.00    -0.252 OA
BRANCH   2   4
ATOM      4  O   UNL     1       9.575  -2.561  -3.242  1.00  0.00    -0.481 OA
ATOM      5  H   UNL     1       9.595  -3.097  -4.099  1.00  0.00     0.296 HD
ENDBRANCH   2   4
ENDBRANCH   1   2
BRANCH   1   6
ATOM      6  C   UNL     1       7.017   0.011  -2.109  1.00  0.00     0.047 C 
BRANCH   6   7
ATOM      7  C   UNL     1       6.462   0.126  -0.735  1.00  0.00    -0.047 A 
ATOM      8  C   UNL     1       6.592  -0.917   0.170  1.00  0.00     0.004 A 
ATOM      9  C   UNL     1       5.789   1.250  -0.291  1.00  0.00     0.004 A 
ATOM     10  C   UNL     1       6.080  -0.846   1.446  1.00  0.00     0.000 A 
ATOM     11  C   UNL     1       5.277   1.320   0.987  1.00  0.00     0.000 A 
ATOM     12  C   UNL     1       5.409   0.280   1.879  1.00  0.00     0.000 A 
ENDBRANCH   6   7
ENDBRANCH   1   6
TORSDOF 4
ENDMDL
MODEL 2
REMARK VINA RESULT:      -7.1      0.065      1.422
REMARK SMILES O=C(O)CCc1ccccc1
REMARK SMILES IDX 4 1 2 2 1 3 3 4 5 6 6 7 7 8 11 9 8 10 10 11 9 12
REMARK H PARENT 3 5
REMARK Flexibility Score: inf
ROOT
ATOM      1  C   UNL     1       8.431  -0.640  -2.152  1.00  0.00     0.127 C 
ENDROOT
BRANCH   1   2
ATOM      2  C   UNL     1       8.415  -1.912  -2.896  1.00  0.00     0.303 C 
ATOM      3  O   UNL     1       7.306  -2.417  -3.222  1.00  0.00    -0.252 OA
BRANCH   2   4
ATOM      4  O   UNL     1       9.592  -2.583  -3.257  1.00  0.00    -0.481 OA
ATOM      5  H   UNL     1       9.853  -2.609  -4.234  1.00  0.00     0.296 HD
ENDBRANCH   2   4
ENDBRANCH   1   2
BRANCH   1   6
ATOM      6  C   UNL     1       7.072   0.035  -2.139  1.00  0.00     0.047 C 
BRANCH   6   7
ATOM      7  C   UNL     1       6.515   0.086  -0.762  1.00  0.00    -0.047 A 
ATOM      8  C   UNL     1       5.864   1.222  -0.303  1.00  0.00     0.004 A 
ATOM      9  C   UNL     1       6.621  -0.968   0.127  1.00  0.00     0.004 A 
ATOM     10  C   UNL     1       5.348   1.304   0.970  1.00  0.00     0.000 A 
ATOM     11  C   UNL     1       6.103  -0.884   1.402  1.00  0.00     0.000 A 
ATOM     12  C   UNL     1       5.459   0.247   1.850  1.00  0.00     0.000 A 
ENDBRANCH   6   7
ENDBRANCH   1   6
TORSDOF 4
ENDMDL
MODEL 3
REMARK VINA RESULT:      -7.1      2.523      3.464
REMARK SMILES O=C(O)CCc1ccccc1
REMARK SMILES IDX 4 1 2 2 1 3 3 4 5 6 6 7 7 8 11 9 8 10 10 11 9 12
REMARK H PARENT 3 5
REMARK Flexibility Score: inf
ROOT
ATOM      1  C   UNL     1       8.137  -2.077   0.945  1.00  0.00     0.127 C 
ENDROOT
BRANCH   1   2
ATOM      2  C   UNL     1       8.423  -3.510   1.135  1.00  0.00     0.303 C 
ATOM      3  O   UNL     1       9.599  -3.929   0.955  1.00  0.00    -0.252 OA
BRANCH   2   4
ATOM      4  O   UNL     1       7.432  -4.427   1.511  1.00  0.00    -0.481 OA
ATOM      5  H   UNL     1       7.162  -4.476   2.484  1.00  0.00     0.296 HD
ENDBRANCH   2   4
ENDBRANCH   1   2
BRANCH   1   6
ATOM      6  C   UNL     1       6.808  -1.671   1.556  1.00  0.00     0.047 C 
BRANCH   6   7
ATOM      7  C   UNL     1       6.293  -0.425   0.932  1.00  0.00    -0.047 A 
ATOM      8  C   UNL     1       5.510   0.460   1.659  1.00  0.00     0.004 A 
ATOM      9  C   UNL     1       6.550  -0.085  -0.384  1.00  0.00     0.004 A 
ATOM     10  C   UNL     1       5.010   1.617   1.107  1.00  0.00     0.000 A 
ATOM     11  C   UNL     1       6.048   1.074  -0.936  1.00  0.00     0.000 A 
ATOM     12  C   UNL     1       5.271   1.946  -0.208  1.00  0.00     0.000 A 
ENDBRANCH   6   7
ENDBRANCH   1   6
TORSDOF 4
ENDMDL
MODEL 4
REMARK VINA RESULT:      -6.7      3.333      5.161
REMARK SMILES O=C(O)CCc1ccccc1
REMARK SMILES IDX 4 1 2 2 1 3 3 4 5 6 6 7 7 8 11 9 8 10 10 11 9 12
REMARK H PARENT 3 5
REMARK Flexibility Score: inf
ROOT
ATOM      1  C   UNL     1       4.994   1.797   0.741  1.00  0.00     0.127 C 
ENDROOT
BRANCH   1   2
ATOM      2  C   UNL     1       4.459   1.115   1.934  1.00  0.00     0.303 C 
ATOM      3  O   UNL     1       5.140   0.202   2.474  1.00  0.00    -0.252 OA
BRANCH   2   4
ATOM      4  O   UNL     1       3.216   1.449   2.491  1.00  0.00    -0.481 OA
ATOM      5  H   UNL     1       3.173   2.207   3.158  1.00  0.00     0.296 HD
ENDBRANCH   2   4
ENDBRANCH   1   2
BRANCH   1   6
ATOM      6  C   UNL     1       6.507   1.920   0.781  1.00  0.00     0.047 C 
BRANCH   6   7
ATOM      7  C   UNL     1       7.134   1.134  -0.314  1.00  0.00    -0.047 A 
ATOM      8  C   UNL     1       6.384   0.239  -1.062  1.00  0.00     0.004 A 
ATOM      9  C   UNL     1       8.475   1.239  -0.637  1.00  0.00     0.004 A 
ATOM     10  C   UNL     1       6.937  -0.510  -2.075  1.00  0.00     0.000 A 
ATOM     11  C   UNL     1       9.028   0.489  -1.652  1.00  0.00     0.000 A 
ATOM     12  C   UNL     1       8.277  -0.398  -2.389  1.00  0.00     0.000 A 
ENDBRANCH   6   7
ENDBRANCH   1   6
TORSDOF 4
ENDMDL
MODEL 5
REMARK VINA RESULT:      -6.5      1.932      2.198
REMARK SMILES O=C(O)CCc1ccccc1
REMARK SMILES IDX 4 1 2 2 1 3 3 4 5 6 6 7 7 8 11 9 8 10 10 11 9 12
REMARK H PARENT 3 5
REMARK Flexibility Score: inf
ROOT
ATOM      1  C   UNL     1       8.185   0.301  -2.103  1.00  0.00     0.127 C 
ENDROOT
BRANCH   1   2
ATOM      2  C   UNL     1       9.370   0.419  -1.235  1.00  0.00     0.303 C 
ATOM      3  O   UNL     1       9.484  -0.356  -0.246  1.00  0.00    -0.252 OA
BRANCH   2   4
ATOM      4  O   UNL     1      10.379   1.363  -1.471  1.00  0.00    -0.481 OA
ATOM      5  H   UNL     1      10.443   2.165  -0.858  1.00  0.00     0.296 HD
ENDBRANCH   2   4
ENDBRANCH   1   2
BRANCH   1   6
ATOM      6  C   UNL     1       7.121  -0.601  -1.503  1.00  0.00     0.047 C 
BRANCH   6   7
ATOM      7  C   UNL     1       6.357   0.109  -0.444  1.00  0.00    -0.047 A 
ATOM      8  C   UNL     1       6.200  -0.455   0.814  1.00  0.00     0.004 A 
ATOM      9  C   UNL     1       5.761   1.340  -0.649  1.00  0.00     0.004 A 
ATOM     10  C   UNL     1       5.490   0.172   1.812  1.00  0.00     0.000 A 
ATOM     11  C   UNL     1       5.049   1.966   0.351  1.00  0.00     0.000 A 
ATOM     12  C   UNL     1       4.897   1.400   1.597  1.00  0.00     0.000 A 
ENDBRANCH   6   7
ENDBRANCH   1   6
TORSDOF 4
ENDMDL
