@<TRIPOS>MOLECULE
/home/cewinharhar/GITHUB/reincatalyze/data/processed/docking_pred/2023-Apr-25-2248_maxeplen10_maxtrainstep1000_exh16_gamma099_lrac3e-4_lrcr1e-3/2368d29bb7bbfa5e31d33bb3936e2ea89938fe66_ligand_2.pdbqt
 12 12 0 0 0
SMALL
GASTEIGER

@<TRIPOS>ATOM
      1  C          8.1850    0.3010   -2.1030 C.3     1  UNL1        0.1270
      2  C          9.3700    0.4190   -1.2350 C.2     1  UNL1        0.3030
      3  O          9.4840   -0.3560   -0.2460 O.2     1  UNL1       -0.2520
      4  O         10.3790    1.3630   -1.4710 O.3     1  UNL1       -0.4810
      5  H         10.4430    2.1650   -0.8580 H       1  UNL1        0.2960
      6  C          7.1210   -0.6010   -1.5030 C.3     1  UNL1        0.0470
      7  C          6.3570    0.1090   -0.4440 C.2     1  UNL1       -0.0470
      8  C          6.2000   -0.4550    0.8140 C.2     1  UNL1        0.0040
      9  C          5.7610    1.3400   -0.6490 C.2     1  UNL1        0.0040
     10  C          5.4900    0.1720    1.8120 C.2     1  UNL1        0.0000
     11  C          5.0490    1.9660    0.3510 C.2     1  UNL1        0.0000
     12  C          4.8970    1.4000    1.5970 C.2     1  UNL1        0.0000
@<TRIPOS>BOND
     1     1     6    1
     2     1     2    1
     3     6     7    1
     4     4     2    1
     5     4     5    1
     6     2     3    2
     7     9     7    2
     8     9    11    1
     9     7     8    1
    10    11    12    2
    11     8    10    2
    12    12    10    1
