@<TRIPOS>MOLECULE
/home/cewinharhar/GITHUB/reincatalyze/data/processed/docking_pred/2023-Apr-25-2248_maxeplen10_maxtrainstep1000_exh16_gamma099_lrac3e-4_lrcr1e-3/2368d29bb7bbfa5e31d33bb3936e2ea89938fe66_ligand_2.pdbqt
 12 12 0 0 0
SMALL
GASTEIGER

@<TRIPOS>ATOM
      1  C          8.4310   -0.6400   -2.1520 C.3     1  UNL1        0.1270
      2  C          8.4150   -1.9120   -2.8960 C.2     1  UNL1        0.3030
      3  O          7.3060   -2.4170   -3.2220 O.2     1  UNL1       -0.2520
      4  O          9.5920   -2.5830   -3.2570 O.3     1  UNL1       -0.4810
      5  H          9.8530   -2.6090   -4.2340 H       1  UNL1        0.2960
      6  C          7.0720    0.0350   -2.1390 C.3     1  UNL1        0.0470
      7  C          6.5150    0.0860   -0.7620 C.2     1  UNL1       -0.0470
      8  C          5.8640    1.2220   -0.3030 C.2     1  UNL1        0.0040
      9  C          6.6210   -0.9680    0.1270 C.2     1  UNL1        0.0040
     10  C          5.3480    1.3040    0.9700 C.2     1  UNL1        0.0000
     11  C          6.1030   -0.8840    1.4020 C.2     1  UNL1        0.0000
     12  C          5.4590    0.2470    1.8500 C.2     1  UNL1        0.0000
@<TRIPOS>BOND
     1     5     4    1
     2     4     2    1
     3     3     2    2
     4     2     1    1
     5     1     6    1
     6     6     7    1
     7     7     8    2
     8     7     9    1
     9     8    10    1
    10     9    11    2
    11    10    12    2
    12    11    12    1
