@<TRIPOS>MOLECULE
/home/cewinharhar/GITHUB/reincatalyze/data/processed/docking_pred/2023-Apr-25-2248_maxeplen10_maxtrainstep1000_exh16_gamma099_lrac3e-4_lrcr1e-3/2368d29bb7bbfa5e31d33bb3936e2ea89938fe66_ligand_2.pdbqt
 12 12 0 0 0
SMALL
GASTEIGER

@<TRIPOS>ATOM
      1  C          8.3740   -0.6690   -2.0920 C.3     1  UNL1        0.1270
      2  C          8.3840   -1.9110   -2.8860 C.2     1  UNL1        0.3030
      3  O          7.2870   -2.4070   -3.2610 O.2     1  UNL1       -0.2520
      4  O          9.5750   -2.5610   -3.2420 O.3     1  UNL1       -0.4810
      5  H          9.5950   -3.0970   -4.0990 H       1  UNL1        0.2960
      6  C          7.0170    0.0110   -2.1090 C.3     1  UNL1        0.0470
      7  C          6.4620    0.1260   -0.7350 C.2     1  UNL1       -0.0470
      8  C          6.5920   -0.9170    0.1700 C.2     1  UNL1        0.0040
      9  C          5.7890    1.2500   -0.2910 C.2     1  UNL1        0.0040
     10  C          6.0800   -0.8460    1.4460 C.2     1  UNL1        0.0000
     11  C          5.2770    1.3200    0.9870 C.2     1  UNL1        0.0000
     12  C          5.4090    0.2800    1.8790 C.2     1  UNL1        0.0000
@<TRIPOS>BOND
     1     5     4    1
     2     3     2    2
     3     4     2    1
     4     2     1    1
     5     6     1    1
     6     6     7    1
     7     7     9    2
     8     7     8    1
     9     9    11    1
    10     8    10    2
    11    11    12    2
    12    10    12    1
