@<TRIPOS>MOLECULE
/home/cewinharhar/GITHUB/reincatalyze/data/processed/docking_pred/2023-Apr-25-2248_maxeplen10_maxtrainstep1000_exh16_gamma099_lrac3e-4_lrcr1e-3/24731d809f1a519c36ca3c9a2574e1987901b3bd_ligand_2.pdbqt
 12 12 0 0 0
SMALL
GASTEIGER

@<TRIPOS>ATOM
      1  C          5.3980    2.9600    0.0860 C.3     1  UNL1        0.1270
      2  C          6.2290    3.9100    0.8460 C.2     1  UNL1        0.3030
      3  O          6.9000    4.7750    0.2190 O.2     1  UNL1       -0.2520
      4  O          6.2990    3.8880    2.2470 O.3     1  UNL1       -0.4810
      5  H          5.5370    3.4690    2.7620 H       1  UNL1        0.2960
      6  C          4.8410    1.8540    0.9650 C.3     1  UNL1        0.0470
      7  C          5.6770    0.6280    0.8720 C.2     1  UNL1       -0.0470
      8  C          5.8140   -0.2180    1.9630 C.2     1  UNL1        0.0040
      9  C          6.3600    0.2730   -0.2760 C.2     1  UNL1        0.0040
     10  C          6.5880   -1.3550    1.9130 C.2     1  UNL1        0.0000
     11  C          7.1350   -0.8660   -0.3250 C.2     1  UNL1        0.0000
     12  C          7.2670   -1.7000    0.7620 C.2     1  UNL1        0.0000
@<TRIPOS>BOND
     1    11     9    1
     2    11    12    2
     3     9     7    2
     4     1     2    1
     5     1     6    1
     6     3     2    2
     7    12    10    1
     8     2     4    1
     9     7     6    1
    10     7     8    1
    11    10     8    2
    12     4     5    1
