@<TRIPOS>MOLECULE
/home/cewinharhar/GITHUB/reincatalyze/data/processed/docking_pred/2023-Apr-25-2248_maxeplen10_maxtrainstep1000_exh16_gamma099_lrac3e-4_lrcr1e-3/24731d809f1a519c36ca3c9a2574e1987901b3bd_ligand_2.pdbqt
 12 12 0 0 0
SMALL
GASTEIGER

@<TRIPOS>ATOM
      1  C          8.3840   -0.5890   -2.1970 C.3     1  UNL1        0.1270
      2  C          8.3920   -1.8810   -2.9070 C.2     1  UNL1        0.3030
      3  O          7.2930   -2.4050   -3.2360 O.2     1  UNL1       -0.2520
      4  O          9.5820   -2.5490   -3.2310 O.3     1  UNL1       -0.4810
      5  H          9.5300   -3.5170   -3.5180 H       1  UNL1        0.2960
      6  C          7.0000    0.0330   -2.1550 C.3     1  UNL1        0.0470
      7  C          6.4760    0.0730   -0.7640 C.2     1  UNL1       -0.0470
      8  C          5.8340    1.2040   -0.2820 C.2     1  UNL1        0.0040
      9  C          6.6040   -0.9880    0.1140 C.2     1  UNL1        0.0040
     10  C          5.3480    1.2760    1.0040 C.2     1  UNL1        0.0000
     11  C          6.1170   -0.9140    1.4010 C.2     1  UNL1        0.0000
     12  C          5.4820    0.2120    1.8730 C.2     1  UNL1        0.0000
@<TRIPOS>BOND
     1     5     4    1
     2     3     2    2
     3     4     2    1
     4     2     1    1
     5     1     6    1
     6     6     7    1
     7     7     8    2
     8     7     9    1
     9     8    10    1
    10     9    11    2
    11    10    12    2
    12    11    12    1
