@<TRIPOS>MOLECULE
/home/cewinharhar/GITHUB/reincatalyze/data/processed/docking_pred/2023-Apr-25-2248_maxeplen10_maxtrainstep1000_exh16_gamma099_lrac3e-4_lrcr1e-3/24731d809f1a519c36ca3c9a2574e1987901b3bd_ligand_2.pdbqt
 12 12 0 0 0
SMALL
GASTEIGER

@<TRIPOS>ATOM
      1  C          5.0180    1.7860    0.7340 C.3     1  UNL1        0.1270
      2  C          4.4740    1.1130    1.9270 C.2     1  UNL1        0.3030
      3  O          5.1470    0.1980    2.4740 O.2     1  UNL1       -0.2520
      4  O          3.2300    1.4560    2.4770 O.3     1  UNL1       -0.4810
      5  H          3.1650    1.5900    3.4770 H       1  UNL1        0.2960
      6  C          6.5320    1.8930    0.7760 C.3     1  UNL1        0.0470
      7  C          7.1520    1.1020   -0.3190 C.2     1  UNL1       -0.0470
      8  C          6.4030    0.1850   -1.0420 C.2     1  UNL1        0.0040
      9  C          8.4850    1.2240   -0.6680 C.2     1  UNL1        0.0040
     10  C          6.9500   -0.5690   -2.0540 C.2     1  UNL1        0.0000
     11  C          9.0310    0.4680   -1.6830 C.2     1  UNL1        0.0000
     12  C          8.2810   -0.4410   -2.3940 C.2     1  UNL1        0.0000
@<TRIPOS>BOND
     1    12    10    2
     2    12    11    1
     3    10     8    1
     4    11     9    2
     5     8     7    2
     6     9     7    1
     7     7     6    1
     8     1     6    1
     9     1     2    1
    10     2     3    2
    11     2     4    1
    12     4     5    1
