MODEL 1
REMARK VINA RESULT:      -7.3      0.000      0.000
REMARK SMILES O=C(O)CCc1ccccc1
REMARK SMILES IDX 4 1 2 2 1 3 3 4 5 6 6 7 7 8 11 9 8 10 10 11 9 12
REMARK H PARENT 3 5
REMARK Flexibility Score: inf
ROOT
ATOM      1  C   UNL     1       8.391  -0.681  -2.100  1.00  0.00     0.127 C 
ENDROOT
BRANCH   1   2
ATOM      2  C   UNL     1       8.429  -1.929  -2.882  1.00  0.00     0.303 C 
ATOM      3  O   UNL     1       9.537  -2.503  -3.064  1.00  0.00    -0.252 OA
BRANCH   2   4
ATOM      4  O   UNL     1       7.274  -2.502  -3.433  1.00  0.00    -0.481 OA
ATOM      5  H   UNL     1       7.377  -3.275  -4.076  1.00  0.00     0.296 HD
ENDBRANCH   2   4
ENDBRANCH   1   2
BRANCH   1   6
ATOM      6  C   UNL     1       7.016  -0.036  -2.114  1.00  0.00     0.047 C 
BRANCH   6   7
ATOM      7  C   UNL     1       6.466   0.078  -0.738  1.00  0.00    -0.047 A 
ATOM      8  C   UNL     1       6.588  -0.972   0.161  1.00  0.00     0.004 A 
ATOM      9  C   UNL     1       5.808   1.207  -0.286  1.00  0.00     0.004 A 
ATOM     10  C   UNL     1       6.080  -0.901   1.438  1.00  0.00     0.000 A 
ATOM     11  C   UNL     1       5.300   1.276   0.993  1.00  0.00     0.000 A 
ATOM     12  C   UNL     1       5.423   0.230   1.879  1.00  0.00     0.000 A 
ENDBRANCH   6   7
ENDBRANCH   1   6
TORSDOF 4
ENDMDL
MODEL 2
REMARK VINA RESULT:      -7.2      0.105      1.724
REMARK SMILES O=C(O)CCc1ccccc1
REMARK SMILES IDX 4 1 2 2 1 3 3 4 5 6 6 7 7 8 11 9 8 10 10 11 9 12
REMARK H PARENT 3 5
REMARK Flexibility Score: inf
ROOT
ATOM      1  C   UNL     1       8.384  -0.589  -2.197  1.00  0.00     0.127 C 
ENDROOT
BRANCH   1   2
ATOM      2  C   UNL     1       8.392  -1.881  -2.907  1.00  0.00     0.303 C 
ATOM      3  O   UNL     1       7.293  -2.405  -3.236  1.00  0.00    -0.252 OA
BRANCH   2   4
ATOM      4  O   UNL     1       9.582  -2.549  -3.231  1.00  0.00    -0.481 OA
ATOM      5  H   UNL     1       9.530  -3.517  -3.518  1.00  0.00     0.296 HD
ENDBRANCH   2   4
ENDBRANCH   1   2
BRANCH   1   6
ATOM      6  C   UNL     1       7.000   0.033  -2.155  1.00  0.00     0.047 C 
BRANCH   6   7
ATOM      7  C   UNL     1       6.476   0.073  -0.764  1.00  0.00    -0.047 A 
ATOM      8  C   UNL     1       5.834   1.204  -0.282  1.00  0.00     0.004 A 
ATOM      9  C   UNL     1       6.604  -0.988   0.114  1.00  0.00     0.004 A 
ATOM     10  C   UNL     1       5.348   1.276   1.004  1.00  0.00     0.000 A 
ATOM     11  C   UNL     1       6.117  -0.914   1.401  1.00  0.00     0.000 A 
ATOM     12  C   UNL     1       5.482   0.212   1.873  1.00  0.00     0.000 A 
ENDBRANCH   6   7
ENDBRANCH   1   6
TORSDOF 4
ENDMDL
MODEL 3
REMARK VINA RESULT:      -7.0      0.652      1.892
REMARK SMILES O=C(O)CCc1ccccc1
REMARK SMILES IDX 4 1 2 2 1 3 3 4 5 6 6 7 7 8 11 9 8 10 10 11 9 12
REMARK H PARENT 3 5
REMARK Flexibility Score: inf
ROOT
ATOM      1  C   UNL     1       8.306  -0.823  -1.979  1.00  0.00     0.127 C 
ENDROOT
BRANCH   1   2
ATOM      2  C   UNL     1       8.338  -1.980  -2.891  1.00  0.00     0.303 C 
ATOM      3  O   UNL     1       7.253  -2.425  -3.354  1.00  0.00    -0.252 OA
BRANCH   2   4
ATOM      4  O   UNL     1       9.537  -2.604  -3.264  1.00  0.00    -0.481 OA
ATOM      5  H   UNL     1       9.757  -2.679  -4.248  1.00  0.00     0.296 HD
ENDBRANCH   2   4
ENDBRANCH   1   2
BRANCH   1   6
ATOM      6  C   UNL     1       7.877  -1.210  -0.575  1.00  0.00     0.047 C 
BRANCH   6   7
ATOM      7  C   UNL     1       6.866  -0.258  -0.045  1.00  0.00    -0.047 A 
ATOM      8  C   UNL     1       6.442   0.821  -0.807  1.00  0.00     0.004 A 
ATOM      9  C   UNL     1       6.309  -0.383   1.215  1.00  0.00     0.004 A 
ATOM     10  C   UNL     1       5.515   1.725  -0.341  1.00  0.00     0.000 A 
ATOM     11  C   UNL     1       5.381   0.523   1.680  1.00  0.00     0.000 A 
ATOM     12  C   UNL     1       4.966   1.592   0.919  1.00  0.00     0.000 A 
ENDBRANCH   6   7
ENDBRANCH   1   6
TORSDOF 4
ENDMDL
MODEL 4
REMARK VINA RESULT:      -6.8      3.399      5.077
REMARK SMILES O=C(O)CCc1ccccc1
REMARK SMILES IDX 4 1 2 2 1 3 3 4 5 6 6 7 7 8 11 9 8 10 10 11 9 12
REMARK H PARENT 3 5
REMARK Flexibility Score: inf
ROOT
ATOM      1  C   UNL     1       5.018   1.786   0.734  1.00  0.00     0.127 C 
ENDROOT
BRANCH   1   2
ATOM      2  C   UNL     1       4.474   1.113   1.927  1.00  0.00     0.303 C 
ATOM      3  O   UNL     1       5.147   0.198   2.474  1.00  0.00    -0.252 OA
BRANCH   2   4
ATOM      4  O   UNL     1       3.230   1.456   2.477  1.00  0.00    -0.481 OA
ATOM      5  H   UNL     1       3.165   1.590   3.477  1.00  0.00     0.296 HD
ENDBRANCH   2   4
ENDBRANCH   1   2
BRANCH   1   6
ATOM      6  C   UNL     1       6.532   1.893   0.776  1.00  0.00     0.047 C 
BRANCH   6   7
ATOM      7  C   UNL     1       7.152   1.102  -0.319  1.00  0.00    -0.047 A 
ATOM      8  C   UNL     1       6.403   0.185  -1.042  1.00  0.00     0.004 A 
ATOM      9  C   UNL     1       8.485   1.224  -0.668  1.00  0.00     0.004 A 
ATOM     10  C   UNL     1       6.950  -0.569  -2.054  1.00  0.00     0.000 A 
ATOM     11  C   UNL     1       9.031   0.468  -1.683  1.00  0.00     0.000 A 
ATOM     12  C   UNL     1       8.281  -0.441  -2.394  1.00  0.00     0.000 A 
ENDBRANCH   6   7
ENDBRANCH   1   6
TORSDOF 4
ENDMDL
MODEL 5
REMARK VINA RESULT:      -6.6      3.799      4.956
REMARK SMILES O=C(O)CCc1ccccc1
REMARK SMILES IDX 4 1 2 2 1 3 3 4 5 6 6 7 7 8 11 9 8 10 10 11 9 12
REMARK H PARENT 3 5
REMARK Flexibility Score: inf
ROOT
ATOM      1  C   UNL     1       5.398   2.960   0.086  1.00  0.00     0.127 C 
ENDROOT
BRANCH   1   2
ATOM      2  C   UNL     1       6.229   3.910   0.846  1.00  0.00     0.303 C 
ATOM      3  O   UNL     1       6.900   4.775   0.219  1.00  0.00    -0.252 OA
BRANCH   2   4
ATOM      4  O   UNL     1       6.299   3.888   2.247  1.00  0.00    -0.481 OA
ATOM      5  H   UNL     1       5.537   3.469   2.762  1.00  0.00     0.296 HD
ENDBRANCH   2   4
ENDBRANCH   1   2
BRANCH   1   6
ATOM      6  C   UNL     1       4.841   1.854   0.965  1.00  0.00     0.047 C 
BRANCH   6   7
ATOM      7  C   UNL     1       5.677   0.628   0.872  1.00  0.00    -0.047 A 
ATOM      8  C   UNL     1       5.814  -0.218   1.963  1.00  0.00     0.004 A 
ATOM      9  C   UNL     1       6.360   0.273  -0.276  1.00  0.00     0.004 A 
ATOM     10  C   UNL     1       6.588  -1.355   1.913  1.00  0.00     0.000 A 
ATOM     11  C   UNL     1       7.135  -0.866  -0.325  1.00  0.00     0.000 A 
ATOM     12  C   UNL     1       7.267  -1.700   0.762  1.00  0.00     0.000 A 
ENDBRANCH   6   7
ENDBRANCH   1   6
TORSDOF 4
ENDMDL
