@<TRIPOS>MOLECULE
/home/cewinharhar/GITHUB/reincatalyze/data/processed/docking_pred/2023-Apr-25-2248_maxeplen10_maxtrainstep1000_exh16_gamma099_lrac3e-4_lrcr1e-3/24731d809f1a519c36ca3c9a2574e1987901b3bd_ligand_2.pdbqt
 12 12 0 0 0
SMALL
GASTEIGER

@<TRIPOS>ATOM
      1  C          8.3910   -0.6810   -2.1000 C.3     1  UNL1        0.1270
      2  C          8.4290   -1.9290   -2.8820 C.2     1  UNL1        0.3030
      3  O          9.5370   -2.5030   -3.0640 O.2     1  UNL1       -0.2520
      4  O          7.2740   -2.5020   -3.4330 O.3     1  UNL1       -0.4810
      5  H          7.3770   -3.2750   -4.0760 H       1  UNL1        0.2960
      6  C          7.0160   -0.0360   -2.1140 C.3     1  UNL1        0.0470
      7  C          6.4660    0.0780   -0.7380 C.2     1  UNL1       -0.0470
      8  C          6.5880   -0.9720    0.1610 C.2     1  UNL1        0.0040
      9  C          5.8080    1.2070   -0.2860 C.2     1  UNL1        0.0040
     10  C          6.0800   -0.9010    1.4380 C.2     1  UNL1        0.0000
     11  C          5.3000    1.2760    0.9930 C.2     1  UNL1        0.0000
     12  C          5.4230    0.2300    1.8790 C.2     1  UNL1        0.0000
@<TRIPOS>BOND
     1     5     4    1
     2     4     2    1
     3     3     2    2
     4     2     1    1
     5     6     1    1
     6     6     7    1
     7     7     9    2
     8     7     8    1
     9     9    11    1
    10     8    10    2
    11    11    12    2
    12    10    12    1
