@<TRIPOS>MOLECULE
/home/cewinharhar/GITHUB/reincatalyze/data/processed/docking_pred/2023-Apr-25-2248_maxeplen10_maxtrainstep1000_exh16_gamma099_lrac3e-4_lrcr1e-3/24731d809f1a519c36ca3c9a2574e1987901b3bd_ligand_2.pdbqt
 12 12 0 0 0
SMALL
GASTEIGER

@<TRIPOS>ATOM
      1  C          8.3060   -0.8230   -1.9790 C.3     1  UNL1        0.1270
      2  C          8.3380   -1.9800   -2.8910 C.2     1  UNL1        0.3030
      3  O          7.2530   -2.4250   -3.3540 O.2     1  UNL1       -0.2520
      4  O          9.5370   -2.6040   -3.2640 O.3     1  UNL1       -0.4810
      5  H          9.7570   -2.6790   -4.2480 H       1  UNL1        0.2960
      6  C          7.8770   -1.2100   -0.5750 C.3     1  UNL1        0.0470
      7  C          6.8660   -0.2580   -0.0450 C.2     1  UNL1       -0.0470
      8  C          6.4420    0.8210   -0.8070 C.2     1  UNL1        0.0040
      9  C          6.3090   -0.3830    1.2150 C.2     1  UNL1        0.0040
     10  C          5.5150    1.7250   -0.3410 C.2     1  UNL1        0.0000
     11  C          5.3810    0.5230    1.6800 C.2     1  UNL1        0.0000
     12  C          4.9660    1.5920    0.9190 C.2     1  UNL1        0.0000
@<TRIPOS>BOND
     1     5     4    1
     2     3     2    2
     3     4     2    1
     4     2     1    1
     5     1     6    1
     6     8    10    1
     7     8     7    2
     8     6     7    1
     9    10    12    2
    10     7     9    1
    11    12    11    1
    12     9    11    2
