@<TRIPOS>MOLECULE
/home/cewinharhar/GITHUB/reincatalyze/data/processed/docking_pred/2023-Apr-25-2248_maxeplen10_maxtrainstep1000_exh16_gamma099_lrac3e-4_lrcr1e-3/25ea22f039de2039e6eb222be1b9c38742a73e8b_ligand_2.pdbqt
 12 12 0 0 0
SMALL
GASTEIGER

@<TRIPOS>ATOM
      1  C          8.4030   -0.6640   -2.1180 C.3     1  UNL1        0.1270
      2  C          8.4270   -1.9190   -2.8910 C.2     1  UNL1        0.3030
      3  O          9.5260   -2.5120   -3.0620 O.2     1  UNL1       -0.2520
      4  O          7.2660   -2.4800   -3.4420 O.3     1  UNL1       -0.4810
      5  H          6.5810   -2.8850   -2.8180 H       1  UNL1        0.2960
      6  C          7.0260   -0.0260   -2.1030 C.3     1  UNL1        0.0470
      7  C          6.4780    0.0240   -0.7220 C.2     1  UNL1       -0.0470
      8  C          5.8240    1.1580   -0.2610 C.2     1  UNL1        0.0040
      9  C          6.5930   -1.0280    0.1680 C.2     1  UNL1        0.0040
     10  C          5.3150    1.2390    1.0150 C.2     1  UNL1        0.0000
     11  C          6.0830   -0.9460    1.4450 C.2     1  UNL1        0.0000
     12  C          5.4370    0.1830    1.8960 C.2     1  UNL1        0.0000
@<TRIPOS>BOND
     1     4     2    1
     2     4     5    1
     3     3     2    2
     4     2     1    1
     5     1     6    1
     6     6     7    1
     7     7     8    2
     8     7     9    1
     9     8    10    1
    10     9    11    2
    11    10    12    2
    12    11    12    1
