@<TRIPOS>MOLECULE
/home/cewinharhar/GITHUB/reincatalyze/data/processed/docking_pred/2023-Apr-25-2248_maxeplen10_maxtrainstep1000_exh16_gamma099_lrac3e-4_lrcr1e-3/25ea22f039de2039e6eb222be1b9c38742a73e8b_ligand_2.pdbqt
 12 12 0 0 0
SMALL
GASTEIGER

@<TRIPOS>ATOM
      1  C          5.0760    1.8240    0.7860 C.3     1  UNL1        0.1270
      2  C          4.4860    1.1250    1.9410 C.2     1  UNL1        0.3030
      3  O          5.1310    0.1870    2.4840 O.2     1  UNL1       -0.2520
      4  O          3.2290    1.4670    2.4600 O.3     1  UNL1       -0.4810
      5  H          3.1350    1.5870    3.4600 H       1  UNL1        0.2960
      6  C          6.5940    1.8190    0.8270 C.3     1  UNL1        0.0470
      7  C          7.1540    1.0350   -0.3050 C.2     1  UNL1       -0.0470
      8  C          8.4700    1.2130   -0.7060 C.2     1  UNL1        0.0040
      9  C          6.4110    0.1090   -1.0140 C.2     1  UNL1        0.0040
     10  C          9.0150    0.5100   -1.7560 C.2     1  UNL1        0.0000
     11  C          6.9580   -0.5940   -2.0650 C.2     1  UNL1        0.0000
     12  C          8.2650   -0.4110   -2.4590 C.2     1  UNL1        0.0000
@<TRIPOS>BOND
     1    12    11    2
     2    12    10    1
     3    11     9    1
     4    10     8    2
     5     9     7    2
     6     8     7    1
     7     7     6    1
     8     1     6    1
     9     1     2    1
    10     2     4    1
    11     2     3    2
    12     4     5    1
