@<TRIPOS>MOLECULE
/home/cewinharhar/GITHUB/reincatalyze/data/processed/docking_pred/2023-Apr-25-2248_maxeplen10_maxtrainstep1000_exh16_gamma099_lrac3e-4_lrcr1e-3/25ea22f039de2039e6eb222be1b9c38742a73e8b_ligand_2.pdbqt
 12 12 0 0 0
SMALL
GASTEIGER

@<TRIPOS>ATOM
      1  C          5.3900    2.9570    0.1920 C.3     1  UNL1        0.1270
      2  C          6.2620    3.9030    0.9120 C.2     1  UNL1        0.3030
      3  O          6.8970    4.7720    0.2560 O.2     1  UNL1       -0.2520
      4  O          6.4090    3.8710    2.3070 O.3     1  UNL1       -0.4810
      5  H          5.8550    4.5050    2.8660 H       1  UNL1        0.2960
      6  C          5.2550    1.6320    0.9210 C.3     1  UNL1        0.0470
      7  C          6.0170    0.5620    0.2270 C.2     1  UNL1       -0.0470
      8  C          6.3030    0.6610   -1.1270 C.2     1  UNL1        0.0040
      9  C          6.4680   -0.5750    0.8730 C.2     1  UNL1        0.0040
     10  C          6.9970   -0.3180   -1.8010 C.2     1  UNL1        0.0000
     11  C          7.1630   -1.5540    0.1960 C.2     1  UNL1        0.0000
     12  C          7.4410   -1.4490   -1.1470 C.2     1  UNL1        0.0000
@<TRIPOS>BOND
     1    10    12    2
     2    10     8    1
     3    12    11    1
     4     8     7    2
     5     1     2    1
     6     1     6    1
     7    11     9    2
     8     7     9    1
     9     7     6    1
    10     3     2    2
    11     2     4    1
    12     4     5    1
