@<TRIPOS>MOLECULE
/home/cewinharhar/GITHUB/reincatalyze/data/processed/docking_pred/2023-Apr-25-2248_maxeplen10_maxtrainstep1000_exh16_gamma099_lrac3e-4_lrcr1e-3/25ea22f039de2039e6eb222be1b9c38742a73e8b_ligand_2.pdbqt
 12 12 0 0 0
SMALL
GASTEIGER

@<TRIPOS>ATOM
      1  C          8.4030   -0.6400   -2.1500 C.3     1  UNL1        0.1270
      2  C          8.4260   -1.9080   -2.9000 C.2     1  UNL1        0.3030
      3  O          9.5250   -2.5060   -3.0580 O.2     1  UNL1       -0.2520
      4  O          7.2650   -2.4770   -3.4440 O.3     1  UNL1       -0.4810
      5  H          6.8730   -2.0680   -4.2810 H       1  UNL1        0.2960
      6  C          7.0200   -0.0140   -2.1230 C.3     1  UNL1        0.0470
      7  C          6.4920    0.0530   -0.7350 C.2     1  UNL1       -0.0470
      8  C          6.6250   -1.0270    0.1260 C.2     1  UNL1        0.0040
      9  C          5.8430    1.1670   -0.2340 C.2     1  UNL1        0.0040
     10  C          6.1380   -1.0000    1.4120 C.2     1  UNL1        0.0000
     11  C          5.3560    1.1930    1.0550 C.2     1  UNL1        0.0000
     12  C          5.4910    0.1170    1.9020 C.2     1  UNL1        0.0000
@<TRIPOS>BOND
     1     5     4    1
     2     4     2    1
     3     3     2    2
     4     2     1    1
     5     1     6    1
     6     6     7    1
     7     7     9    2
     8     7     8    1
     9     9    11    1
    10     8    10    2
    11    11    12    2
    12    10    12    1
