MODEL 1
REMARK VINA RESULT:      -7.3      0.000      0.000
REMARK SMILES O=C(O)CCc1ccccc1
REMARK SMILES IDX 4 1 2 2 1 3 3 4 5 6 6 7 7 8 11 9 8 10 10 11 9 12
REMARK H PARENT 3 5
REMARK Flexibility Score: inf
ROOT
ATOM      1  C   UNL     1       8.403  -0.664  -2.118  1.00  0.00     0.127 C 
ENDROOT
BRANCH   1   2
ATOM      2  C   UNL     1       8.427  -1.919  -2.891  1.00  0.00     0.303 C 
ATOM      3  O   UNL     1       9.526  -2.512  -3.062  1.00  0.00    -0.252 OA
BRANCH   2   4
ATOM      4  O   UNL     1       7.266  -2.480  -3.442  1.00  0.00    -0.481 OA
ATOM      5  H   UNL     1       6.581  -2.885  -2.818  1.00  0.00     0.296 HD
ENDBRANCH   2   4
ENDBRANCH   1   2
BRANCH   1   6
ATOM      6  C   UNL     1       7.026  -0.026  -2.103  1.00  0.00     0.047 C 
BRANCH   6   7
ATOM      7  C   UNL     1       6.478   0.024  -0.722  1.00  0.00    -0.047 A 
ATOM      8  C   UNL     1       5.824   1.158  -0.261  1.00  0.00     0.004 A 
ATOM      9  C   UNL     1       6.593  -1.028   0.168  1.00  0.00     0.004 A 
ATOM     10  C   UNL     1       5.315   1.239   1.015  1.00  0.00     0.000 A 
ATOM     11  C   UNL     1       6.083  -0.946   1.445  1.00  0.00     0.000 A 
ATOM     12  C   UNL     1       5.437   0.183   1.896  1.00  0.00     0.000 A 
ENDBRANCH   6   7
ENDBRANCH   1   6
TORSDOF 4
ENDMDL
MODEL 2
REMARK VINA RESULT:      -7.3      0.050      1.421
REMARK SMILES O=C(O)CCc1ccccc1
REMARK SMILES IDX 4 1 2 2 1 3 3 4 5 6 6 7 7 8 11 9 8 10 10 11 9 12
REMARK H PARENT 3 5
REMARK Flexibility Score: inf
ROOT
ATOM      1  C   UNL     1       8.403  -0.640  -2.150  1.00  0.00     0.127 C 
ENDROOT
BRANCH   1   2
ATOM      2  C   UNL     1       8.426  -1.908  -2.900  1.00  0.00     0.303 C 
ATOM      3  O   UNL     1       9.525  -2.506  -3.058  1.00  0.00    -0.252 OA
BRANCH   2   4
ATOM      4  O   UNL     1       7.265  -2.477  -3.444  1.00  0.00    -0.481 OA
ATOM      5  H   UNL     1       6.873  -2.068  -4.281  1.00  0.00     0.296 HD
ENDBRANCH   2   4
ENDBRANCH   1   2
BRANCH   1   6
ATOM      6  C   UNL     1       7.020  -0.014  -2.123  1.00  0.00     0.047 C 
BRANCH   6   7
ATOM      7  C   UNL     1       6.492   0.053  -0.735  1.00  0.00    -0.047 A 
ATOM      8  C   UNL     1       6.625  -1.027   0.126  1.00  0.00     0.004 A 
ATOM      9  C   UNL     1       5.843   1.167  -0.234  1.00  0.00     0.004 A 
ATOM     10  C   UNL     1       6.138  -1.000   1.412  1.00  0.00     0.000 A 
ATOM     11  C   UNL     1       5.356   1.193   1.055  1.00  0.00     0.000 A 
ATOM     12  C   UNL     1       5.491   0.117   1.902  1.00  0.00     0.000 A 
ENDBRANCH   6   7
ENDBRANCH   1   6
TORSDOF 4
ENDMDL
MODEL 3
REMARK VINA RESULT:      -6.8      3.399      5.082
REMARK SMILES O=C(O)CCc1ccccc1
REMARK SMILES IDX 4 1 2 2 1 3 3 4 5 6 6 7 7 8 11 9 8 10 10 11 9 12
REMARK H PARENT 3 5
REMARK Flexibility Score: inf
ROOT
ATOM      1  C   UNL     1       5.076   1.824   0.786  1.00  0.00     0.127 C 
ENDROOT
BRANCH   1   2
ATOM      2  C   UNL     1       4.486   1.125   1.941  1.00  0.00     0.303 C 
ATOM      3  O   UNL     1       5.131   0.187   2.484  1.00  0.00    -0.252 OA
BRANCH   2   4
ATOM      4  O   UNL     1       3.229   1.467   2.460  1.00  0.00    -0.481 OA
ATOM      5  H   UNL     1       3.135   1.587   3.460  1.00  0.00     0.296 HD
ENDBRANCH   2   4
ENDBRANCH   1   2
BRANCH   1   6
ATOM      6  C   UNL     1       6.594   1.819   0.827  1.00  0.00     0.047 C 
BRANCH   6   7
ATOM      7  C   UNL     1       7.154   1.035  -0.305  1.00  0.00    -0.047 A 
ATOM      8  C   UNL     1       8.470   1.213  -0.706  1.00  0.00     0.004 A 
ATOM      9  C   UNL     1       6.411   0.109  -1.014  1.00  0.00     0.004 A 
ATOM     10  C   UNL     1       9.015   0.510  -1.756  1.00  0.00     0.000 A 
ATOM     11  C   UNL     1       6.958  -0.594  -2.065  1.00  0.00     0.000 A 
ATOM     12  C   UNL     1       8.265  -0.411  -2.459  1.00  0.00     0.000 A 
ENDBRANCH   6   7
ENDBRANCH   1   6
TORSDOF 4
ENDMDL
MODEL 4
REMARK VINA RESULT:      -6.7      1.966      2.374
REMARK SMILES O=C(O)CCc1ccccc1
REMARK SMILES IDX 4 1 2 2 1 3 3 4 5 6 6 7 7 8 11 9 8 10 10 11 9 12
REMARK H PARENT 3 5
REMARK Flexibility Score: inf
ROOT
ATOM      1  C   UNL     1       8.269   0.261  -2.160  1.00  0.00     0.127 C 
ENDROOT
BRANCH   1   2
ATOM      2  C   UNL     1       9.401   0.383  -1.225  1.00  0.00     0.303 C 
ATOM      3  O   UNL     1       9.462  -0.393  -0.233  1.00  0.00    -0.252 OA
BRANCH   2   4
ATOM      4  O   UNL     1      10.417   1.333  -1.400  1.00  0.00    -0.481 OA
ATOM      5  H   UNL     1      10.263   2.090  -2.052  1.00  0.00     0.296 HD
ENDBRANCH   2   4
ENDBRANCH   1   2
BRANCH   1   6
ATOM      6  C   UNL     1       7.130  -0.559  -1.579  1.00  0.00     0.047 C 
BRANCH   6   7
ATOM      7  C   UNL     1       6.344   0.239  -0.602  1.00  0.00    -0.047 A 
ATOM      8  C   UNL     1       5.823   1.476  -0.955  1.00  0.00     0.004 A 
ATOM      9  C   UNL     1       6.099  -0.190   0.690  1.00  0.00     0.004 A 
ATOM     10  C   UNL     1       5.100   2.243  -0.070  1.00  0.00     0.000 A 
ATOM     11  C   UNL     1       5.375   0.580   1.574  1.00  0.00     0.000 A 
ATOM     12  C   UNL     1       4.863   1.807   1.218  1.00  0.00     0.000 A 
ENDBRANCH   6   7
ENDBRANCH   1   6
TORSDOF 4
ENDMDL
MODEL 5
REMARK VINA RESULT:      -6.5      3.783      5.012
REMARK SMILES O=C(O)CCc1ccccc1
REMARK SMILES IDX 4 1 2 2 1 3 3 4 5 6 6 7 7 8 11 9 8 10 10 11 9 12
REMARK H PARENT 3 5
REMARK Flexibility Score: inf
ROOT
ATOM      1  C   UNL     1       5.390   2.957   0.192  1.00  0.00     0.127 C 
ENDROOT
BRANCH   1   2
ATOM      2  C   UNL     1       6.262   3.903   0.912  1.00  0.00     0.303 C 
ATOM      3  O   UNL     1       6.897   4.772   0.256  1.00  0.00    -0.252 OA
BRANCH   2   4
ATOM      4  O   UNL     1       6.409   3.871   2.307  1.00  0.00    -0.481 OA
ATOM      5  H   UNL     1       5.855   4.505   2.866  1.00  0.00     0.296 HD
ENDBRANCH   2   4
ENDBRANCH   1   2
BRANCH   1   6
ATOM      6  C   UNL     1       5.255   1.632   0.921  1.00  0.00     0.047 C 
BRANCH   6   7
ATOM      7  C   UNL     1       6.017   0.562   0.227  1.00  0.00    -0.047 A 
ATOM      8  C   UNL     1       6.303   0.661  -1.127  1.00  0.00     0.004 A 
ATOM      9  C   UNL     1       6.468  -0.575   0.873  1.00  0.00     0.004 A 
ATOM     10  C   UNL     1       6.997  -0.318  -1.801  1.00  0.00     0.000 A 
ATOM     11  C   UNL     1       7.163  -1.554   0.196  1.00  0.00     0.000 A 
ATOM     12  C   UNL     1       7.441  -1.449  -1.147  1.00  0.00     0.000 A 
ENDBRANCH   6   7
ENDBRANCH   1   6
TORSDOF 4
ENDMDL
