@<TRIPOS>MOLECULE
/home/cewinharhar/GITHUB/reincatalyze/data/processed/docking_pred/2023-Apr-25-2248_maxeplen10_maxtrainstep1000_exh16_gamma099_lrac3e-4_lrcr1e-3/25ea22f039de2039e6eb222be1b9c38742a73e8b_ligand_2.pdbqt
 12 12 0 0 0
SMALL
GASTEIGER

@<TRIPOS>ATOM
      1  C          8.2690    0.2610   -2.1600 C.3     1  UNL1        0.1270
      2  C          9.4010    0.3830   -1.2250 C.2     1  UNL1        0.3030
      3  O          9.4620   -0.3930   -0.2330 O.2     1  UNL1       -0.2520
      4  O         10.4170    1.3330   -1.4000 O.3     1  UNL1       -0.4810
      5  H         10.2630    2.0900   -2.0520 H       1  UNL1        0.2960
      6  C          7.1300   -0.5590   -1.5790 C.3     1  UNL1        0.0470
      7  C          6.3440    0.2390   -0.6020 C.2     1  UNL1       -0.0470
      8  C          5.8230    1.4760   -0.9550 C.2     1  UNL1        0.0040
      9  C          6.0990   -0.1900    0.6900 C.2     1  UNL1        0.0040
     10  C          5.1000    2.2430   -0.0700 C.2     1  UNL1        0.0000
     11  C          5.3750    0.5800    1.5740 C.2     1  UNL1        0.0000
     12  C          4.8630    1.8070    1.2180 C.2     1  UNL1        0.0000
@<TRIPOS>BOND
     1     1     6    1
     2     1     2    1
     3     5     4    1
     4     6     7    1
     5     4     2    1
     6     2     3    2
     7     8     7    2
     8     8    10    1
     9     7     9    1
    10    10    12    2
    11     9    11    2
    12    12    11    1
