MODEL 1
REMARK VINA RESULT:      -7.3      0.000      0.000
REMARK SMILES O=C(O)CCc1ccccc1
REMARK SMILES IDX 4 1 2 2 1 3 3 4 5 6 6 7 7 8 11 9 8 10 10 11 9 12
REMARK H PARENT 3 5
REMARK Flexibility Score: inf
ROOT
ATOM      1  C   UNL     1       8.415  -0.635  -2.154  1.00  0.00     0.127 C 
ENDROOT
BRANCH   1   2
ATOM      2  C   UNL     1       8.437  -1.904  -2.902  1.00  0.00     0.303 C 
ATOM      3  O   UNL     1       9.540  -2.487  -3.086  1.00  0.00    -0.252 OA
BRANCH   2   4
ATOM      4  O   UNL     1       7.271  -2.490  -3.416  1.00  0.00    -0.481 OA
ATOM      5  H   UNL     1       6.507  -1.886  -3.687  1.00  0.00     0.296 HD
ENDBRANCH   2   4
ENDBRANCH   1   2
BRANCH   1   6
ATOM      6  C   UNL     1       7.036  -0.001  -2.141  1.00  0.00     0.047 C 
BRANCH   6   7
ATOM      7  C   UNL     1       6.498   0.075  -0.757  1.00  0.00    -0.047 A 
ATOM      8  C   UNL     1       5.850   1.218  -0.311  1.00  0.00     0.004 A 
ATOM      9  C   UNL     1       6.616  -0.963   0.149  1.00  0.00     0.004 A 
ATOM     10  C   UNL     1       5.351   1.323   0.967  1.00  0.00     0.000 A 
ATOM     11  C   UNL     1       6.115  -0.856   1.429  1.00  0.00     0.000 A 
ATOM     12  C   UNL     1       5.475   0.282   1.865  1.00  0.00     0.000 A 
ENDBRANCH   6   7
ENDBRANCH   1   6
TORSDOF 4
ENDMDL
MODEL 2
REMARK VINA RESULT:      -7.3      0.118      1.724
REMARK SMILES O=C(O)CCc1ccccc1
REMARK SMILES IDX 4 1 2 2 1 3 3 4 5 6 6 7 7 8 11 9 8 10 10 11 9 12
REMARK H PARENT 3 5
REMARK Flexibility Score: inf
ROOT
ATOM      1  C   UNL     1       8.408  -0.703  -2.057  1.00  0.00     0.127 C 
ENDROOT
BRANCH   1   2
ATOM      2  C   UNL     1       8.404  -1.929  -2.874  1.00  0.00     0.303 C 
ATOM      3  O   UNL     1       7.301  -2.420  -3.237  1.00  0.00    -0.252 OA
BRANCH   2   4
ATOM      4  O   UNL     1       9.588  -2.571  -3.266  1.00  0.00    -0.481 OA
ATOM      5  H   UNL     1       9.776  -3.498  -2.910  1.00  0.00     0.296 HD
ENDBRANCH   2   4
ENDBRANCH   1   2
BRANCH   1   6
ATOM      6  C   UNL     1       7.076   0.024  -2.108  1.00  0.00     0.047 C 
BRANCH   6   7
ATOM      7  C   UNL     1       6.486   0.150  -0.749  1.00  0.00    -0.047 A 
ATOM      8  C   UNL     1       6.605  -0.880   0.172  1.00  0.00     0.004 A 
ATOM      9  C   UNL     1       5.792   1.272  -0.336  1.00  0.00     0.004 A 
ATOM     10  C   UNL     1       6.061  -0.799   1.434  1.00  0.00     0.000 A 
ATOM     11  C   UNL     1       5.248   1.353   0.928  1.00  0.00     0.000 A 
ATOM     12  C   UNL     1       5.369   0.326   1.836  1.00  0.00     0.000 A 
ENDBRANCH   6   7
ENDBRANCH   1   6
TORSDOF 4
ENDMDL
MODEL 3
REMARK VINA RESULT:      -6.8      3.390      5.073
REMARK SMILES O=C(O)CCc1ccccc1
REMARK SMILES IDX 4 1 2 2 1 3 3 4 5 6 6 7 7 8 11 9 8 10 10 11 9 12
REMARK H PARENT 3 5
REMARK Flexibility Score: inf
ROOT
ATOM      1  C   UNL     1       5.012   1.772   0.738  1.00  0.00     0.127 C 
ENDROOT
BRANCH   1   2
ATOM      2  C   UNL     1       4.467   1.108   1.935  1.00  0.00     0.303 C 
ATOM      3  O   UNL     1       5.140   0.197   2.489  1.00  0.00    -0.252 OA
BRANCH   2   4
ATOM      4  O   UNL     1       3.224   1.456   2.483  1.00  0.00    -0.481 OA
ATOM      5  H   UNL     1       3.103   1.395   3.485  1.00  0.00     0.296 HD
ENDBRANCH   2   4
ENDBRANCH   1   2
BRANCH   1   6
ATOM      6  C   UNL     1       6.527   1.861   0.770  1.00  0.00     0.047 C 
BRANCH   6   7
ATOM      7  C   UNL     1       7.132   1.056  -0.323  1.00  0.00    -0.047 A 
ATOM      8  C   UNL     1       8.465   1.220  -0.669  1.00  0.00     0.004 A 
ATOM      9  C   UNL     1       6.414   0.123  -1.050  1.00  0.00     0.004 A 
ATOM     10  C   UNL     1       9.051   0.497  -1.683  1.00  0.00     0.000 A 
ATOM     11  C   UNL     1       7.003  -0.600  -2.065  1.00  0.00     0.000 A 
ATOM     12  C   UNL     1       8.326  -0.431  -2.403  1.00  0.00     0.000 A 
ENDBRANCH   6   7
ENDBRANCH   1   6
TORSDOF 4
ENDMDL
MODEL 4
REMARK VINA RESULT:      -6.8      3.389      5.091
REMARK SMILES O=C(O)CCc1ccccc1
REMARK SMILES IDX 4 1 2 2 1 3 3 4 5 6 6 7 7 8 11 9 8 10 10 11 9 12
REMARK H PARENT 3 5
REMARK Flexibility Score: inf
ROOT
ATOM      1  C   UNL     1       5.025   1.729   0.704  1.00  0.00     0.127 C 
ENDROOT
BRANCH   1   2
ATOM      2  C   UNL     1       4.482   1.099   1.921  1.00  0.00     0.303 C 
ATOM      3  O   UNL     1       5.153   0.201   2.497  1.00  0.00    -0.252 OA
BRANCH   2   4
ATOM      4  O   UNL     1       3.241   1.466   2.462  1.00  0.00    -0.481 OA
ATOM      5  H   UNL     1       2.455   1.579   1.837  1.00  0.00     0.296 HD
ENDBRANCH   2   4
ENDBRANCH   1   2
BRANCH   1   6
ATOM      6  C   UNL     1       6.536   1.862   0.753  1.00  0.00     0.047 C 
BRANCH   6   7
ATOM      7  C   UNL     1       7.175   1.087  -0.343  1.00  0.00    -0.047 A 
ATOM      8  C   UNL     1       6.440   0.176  -1.087  1.00  0.00     0.004 A 
ATOM      9  C   UNL     1       8.512   1.218  -0.671  1.00  0.00     0.004 A 
ATOM     10  C   UNL     1       7.004  -0.564  -2.100  1.00  0.00     0.000 A 
ATOM     11  C   UNL     1       9.076   0.476  -1.686  1.00  0.00     0.000 A 
ATOM     12  C   UNL     1       8.340  -0.427  -2.419  1.00  0.00     0.000 A 
ENDBRANCH   6   7
ENDBRANCH   1   6
TORSDOF 4
ENDMDL
MODEL 5
REMARK VINA RESULT:      -6.6      1.992      2.729
REMARK SMILES O=C(O)CCc1ccccc1
REMARK SMILES IDX 4 1 2 2 1 3 3 4 5 6 6 7 7 8 11 9 8 10 10 11 9 12
REMARK H PARENT 3 5
REMARK Flexibility Score: inf
ROOT
ATOM      1  C   UNL     1       8.387   0.315  -2.058  1.00  0.00     0.127 C 
ENDROOT
BRANCH   1   2
ATOM      2  C   UNL     1       9.490   0.377  -1.083  1.00  0.00     0.303 C 
ATOM      3  O   UNL     1       9.484  -0.415  -0.102  1.00  0.00    -0.252 OA
BRANCH   2   4
ATOM      4  O   UNL     1      10.550   1.286  -1.210  1.00  0.00    -0.481 OA
ATOM      5  H   UNL     1      11.494   0.927  -1.238  1.00  0.00     0.296 HD
ENDBRANCH   2   4
ENDBRANCH   1   2
BRANCH   1   6
ATOM      6  C   UNL     1       7.213  -0.500  -1.546  1.00  0.00     0.047 C 
BRANCH   6   7
ATOM      7  C   UNL     1       6.388   0.293  -0.597  1.00  0.00    -0.047 A 
ATOM      8  C   UNL     1       6.149  -0.169   0.690  1.00  0.00     0.004 A 
ATOM      9  C   UNL     1       5.816   1.505  -0.935  1.00  0.00     0.004 A 
ATOM     10  C   UNL     1       5.381   0.536   1.588  1.00  0.00     0.000 A 
ATOM     11  C   UNL     1       5.047   2.211  -0.034  1.00  0.00     0.000 A 
ATOM     12  C   UNL     1       4.813   1.745   1.240  1.00  0.00     0.000 A 
ENDBRANCH   6   7
ENDBRANCH   1   6
TORSDOF 4
ENDMDL
