@<TRIPOS>MOLECULE
/home/cewinharhar/GITHUB/reincatalyze/data/processed/docking_pred/2023-Apr-25-2248_maxeplen10_maxtrainstep1000_exh16_gamma099_lrac3e-4_lrcr1e-3/25f547df8c587039729a955c6f4cb3c83005f49c_ligand_2.pdbqt
 12 12 0 0 0
SMALL
GASTEIGER

@<TRIPOS>ATOM
      1  C          8.3870    0.3150   -2.0580 C.3     1  UNL1        0.1270
      2  C          9.4900    0.3770   -1.0830 C.2     1  UNL1        0.3030
      3  O          9.4840   -0.4150   -0.1020 O.2     1  UNL1       -0.2520
      4  O         10.5500    1.2860   -1.2100 O.3     1  UNL1       -0.4810
      5  H         11.4940    0.9270   -1.2380 H       1  UNL1        0.2960
      6  C          7.2130   -0.5000   -1.5460 C.3     1  UNL1        0.0470
      7  C          6.3880    0.2930   -0.5970 C.2     1  UNL1       -0.0470
      8  C          6.1490   -0.1690    0.6900 C.2     1  UNL1        0.0040
      9  C          5.8160    1.5050   -0.9350 C.2     1  UNL1        0.0040
     10  C          5.3810    0.5360    1.5880 C.2     1  UNL1        0.0000
     11  C          5.0470    2.2110   -0.0340 C.2     1  UNL1        0.0000
     12  C          4.8130    1.7450    1.2400 C.2     1  UNL1        0.0000
@<TRIPOS>BOND
     1     1     6    1
     2     1     2    1
     3     6     7    1
     4     5     4    1
     5     4     2    1
     6     2     3    2
     7     9     7    2
     8     9    11    1
     9     7     8    1
    10    11    12    2
    11     8    10    2
    12    12    10    1
