@<TRIPOS>MOLECULE
/home/cewinharhar/GITHUB/reincatalyze/data/processed/docking_pred/2023-Apr-25-2248_maxeplen10_maxtrainstep1000_exh16_gamma099_lrac3e-4_lrcr1e-3/25f547df8c587039729a955c6f4cb3c83005f49c_ligand_2.pdbqt
 12 12 0 0 0
SMALL
GASTEIGER

@<TRIPOS>ATOM
      1  C          8.4150   -0.6350   -2.1540 C.3     1  UNL1        0.1270
      2  C          8.4370   -1.9040   -2.9020 C.2     1  UNL1        0.3030
      3  O          9.5400   -2.4870   -3.0860 O.2     1  UNL1       -0.2520
      4  O          7.2710   -2.4900   -3.4160 O.3     1  UNL1       -0.4810
      5  H          6.5070   -1.8860   -3.6870 H       1  UNL1        0.2960
      6  C          7.0360   -0.0010   -2.1410 C.3     1  UNL1        0.0470
      7  C          6.4980    0.0750   -0.7570 C.2     1  UNL1       -0.0470
      8  C          5.8500    1.2180   -0.3110 C.2     1  UNL1        0.0040
      9  C          6.6160   -0.9630    0.1490 C.2     1  UNL1        0.0040
     10  C          5.3510    1.3230    0.9670 C.2     1  UNL1        0.0000
     11  C          6.1150   -0.8560    1.4290 C.2     1  UNL1        0.0000
     12  C          5.4750    0.2820    1.8650 C.2     1  UNL1        0.0000
@<TRIPOS>BOND
     1     5     4    1
     2     4     2    1
     3     3     2    2
     4     2     1    1
     5     1     6    1
     6     6     7    1
     7     7     8    2
     8     7     9    1
     9     8    10    1
    10     9    11    2
    11    10    12    2
    12    11    12    1
