@<TRIPOS>MOLECULE
/home/cewinharhar/GITHUB/reincatalyze/data/processed/docking_pred/2023-Apr-25-2248_maxeplen10_maxtrainstep1000_exh16_gamma099_lrac3e-4_lrcr1e-3/25f547df8c587039729a955c6f4cb3c83005f49c_ligand_2.pdbqt
 12 12 0 0 0
SMALL
GASTEIGER

@<TRIPOS>ATOM
      1  C          5.0120    1.7720    0.7380 C.3     1  UNL1        0.1270
      2  C          4.4670    1.1080    1.9350 C.2     1  UNL1        0.3030
      3  O          5.1400    0.1970    2.4890 O.2     1  UNL1       -0.2520
      4  O          3.2240    1.4560    2.4830 O.3     1  UNL1       -0.4810
      5  H          3.1030    1.3950    3.4850 H       1  UNL1        0.2960
      6  C          6.5270    1.8610    0.7700 C.3     1  UNL1        0.0470
      7  C          7.1320    1.0560   -0.3230 C.2     1  UNL1       -0.0470
      8  C          8.4650    1.2200   -0.6690 C.2     1  UNL1        0.0040
      9  C          6.4140    0.1230   -1.0500 C.2     1  UNL1        0.0040
     10  C          9.0510    0.4970   -1.6830 C.2     1  UNL1        0.0000
     11  C          7.0030   -0.6000   -2.0650 C.2     1  UNL1        0.0000
     12  C          8.3260   -0.4310   -2.4030 C.2     1  UNL1        0.0000
@<TRIPOS>BOND
     1    12    11    2
     2    12    10    1
     3    11     9    1
     4    10     8    2
     5     9     7    2
     6     8     7    1
     7     7     6    1
     8     1     6    1
     9     1     2    1
    10     2     4    1
    11     2     3    2
    12     4     5    1
