@<TRIPOS>MOLECULE
/home/cewinharhar/GITHUB/reincatalyze/data/processed/docking_pred/2023-Apr-25-2248_maxeplen10_maxtrainstep1000_exh16_gamma099_lrac3e-4_lrcr1e-3/25f547df8c587039729a955c6f4cb3c83005f49c_ligand_2.pdbqt
 12 12 0 0 0
SMALL
GASTEIGER

@<TRIPOS>ATOM
      1  C          8.4080   -0.7030   -2.0570 C.3     1  UNL1        0.1270
      2  C          8.4040   -1.9290   -2.8740 C.2     1  UNL1        0.3030
      3  O          7.3010   -2.4200   -3.2370 O.2     1  UNL1       -0.2520
      4  O          9.5880   -2.5710   -3.2660 O.3     1  UNL1       -0.4810
      5  H          9.7760   -3.4980   -2.9100 H       1  UNL1        0.2960
      6  C          7.0760    0.0240   -2.1080 C.3     1  UNL1        0.0470
      7  C          6.4860    0.1500   -0.7490 C.2     1  UNL1       -0.0470
      8  C          6.6050   -0.8800    0.1720 C.2     1  UNL1        0.0040
      9  C          5.7920    1.2720   -0.3360 C.2     1  UNL1        0.0040
     10  C          6.0610   -0.7990    1.4340 C.2     1  UNL1        0.0000
     11  C          5.2480    1.3530    0.9280 C.2     1  UNL1        0.0000
     12  C          5.3690    0.3260    1.8360 C.2     1  UNL1        0.0000
@<TRIPOS>BOND
     1     4     5    1
     2     4     2    1
     3     3     2    2
     4     2     1    1
     5     6     1    1
     6     6     7    1
     7     7     9    2
     8     7     8    1
     9     9    11    1
    10     8    10    2
    11    11    12    2
    12    10    12    1
