@<TRIPOS>MOLECULE
/home/cewinharhar/GITHUB/reincatalyze/data/processed/docking_pred/2023-Apr-25-2248_maxeplen10_maxtrainstep1000_exh16_gamma099_lrac3e-4_lrcr1e-3/25f547df8c587039729a955c6f4cb3c83005f49c_ligand_2.pdbqt
 12 12 0 0 0
SMALL
GASTEIGER

@<TRIPOS>ATOM
      1  C          5.0250    1.7290    0.7040 C.3     1  UNL1        0.1270
      2  C          4.4820    1.0990    1.9210 C.2     1  UNL1        0.3030
      3  O          5.1530    0.2010    2.4970 O.2     1  UNL1       -0.2520
      4  O          3.2410    1.4660    2.4620 O.3     1  UNL1       -0.4810
      5  H          2.4550    1.5790    1.8370 H       1  UNL1        0.2960
      6  C          6.5360    1.8620    0.7530 C.3     1  UNL1        0.0470
      7  C          7.1750    1.0870   -0.3430 C.2     1  UNL1       -0.0470
      8  C          6.4400    0.1760   -1.0870 C.2     1  UNL1        0.0040
      9  C          8.5120    1.2180   -0.6710 C.2     1  UNL1        0.0040
     10  C          7.0040   -0.5640   -2.1000 C.2     1  UNL1        0.0000
     11  C          9.0760    0.4760   -1.6860 C.2     1  UNL1        0.0000
     12  C          8.3400   -0.4270   -2.4190 C.2     1  UNL1        0.0000
@<TRIPOS>BOND
     1    12    10    2
     2    12    11    1
     3    10     8    1
     4    11     9    2
     5     8     7    2
     6     9     7    1
     7     7     6    1
     8     1     6    1
     9     1     2    1
    10     5     4    1
    11     2     4    1
    12     2     3    2
