MODEL 1
REMARK VINA RESULT:      -7.3      0.000      0.000
REMARK SMILES O=C(O)CCc1ccccc1
REMARK SMILES IDX 4 1 2 2 1 3 3 4 5 6 6 7 7 8 11 9 8 10 10 11 9 12
REMARK H PARENT 3 5
REMARK Flexibility Score: inf
ROOT
ATOM      1  C   UNL     1       8.440  -0.648  -2.159  1.00  0.00     0.127 C 
ENDROOT
BRANCH   1   2
ATOM      2  C   UNL     1       8.457  -1.916  -2.909  1.00  0.00     0.303 C 
ATOM      3  O   UNL     1       9.555  -2.515  -3.074  1.00  0.00    -0.252 OA
BRANCH   2   4
ATOM      4  O   UNL     1       7.293  -2.483  -3.447  1.00  0.00    -0.481 OA
ATOM      5  H   UNL     1       6.877  -2.052  -4.262  1.00  0.00     0.296 HD
ENDBRANCH   2   4
ENDBRANCH   1   2
BRANCH   1   6
ATOM      6  C   UNL     1       7.067  -0.000  -2.158  1.00  0.00     0.047 C 
BRANCH   6   7
ATOM      7  C   UNL     1       6.510   0.068  -0.782  1.00  0.00    -0.047 A 
ATOM      8  C   UNL     1       5.844   1.203  -0.343  1.00  0.00     0.004 A 
ATOM      9  C   UNL     1       6.629  -0.969   0.125  1.00  0.00     0.004 A 
ATOM     10  C   UNL     1       5.327   1.301   0.928  1.00  0.00     0.000 A 
ATOM     11  C   UNL     1       6.110  -0.869   1.398  1.00  0.00     0.000 A 
ATOM     12  C   UNL     1       5.452   0.261   1.827  1.00  0.00     0.000 A 
ENDBRANCH   6   7
ENDBRANCH   1   6
TORSDOF 4
ENDMDL
MODEL 2
REMARK VINA RESULT:      -7.3      0.056      1.421
REMARK SMILES O=C(O)CCc1ccccc1
REMARK SMILES IDX 4 1 2 2 1 3 3 4 5 6 6 7 7 8 11 9 8 10 10 11 9 12
REMARK H PARENT 3 5
REMARK Flexibility Score: inf
ROOT
ATOM      1  C   UNL     1       8.401  -0.609  -2.213  1.00  0.00     0.127 C 
ENDROOT
BRANCH   1   2
ATOM      2  C   UNL     1       8.452  -1.894  -2.932  1.00  0.00     0.303 C 
ATOM      3  O   UNL     1       9.567  -2.456  -3.104  1.00  0.00    -0.252 OA
BRANCH   2   4
ATOM      4  O   UNL     1       7.299  -2.517  -3.433  1.00  0.00    -0.481 OA
ATOM      5  H   UNL     1       6.873  -2.143  -4.270  1.00  0.00     0.296 HD
ENDBRANCH   2   4
ENDBRANCH   1   2
BRANCH   1   6
ATOM      6  C   UNL     1       7.005  -0.013  -2.199  1.00  0.00     0.047 C 
BRANCH   6   7
ATOM      7  C   UNL     1       6.487   0.099  -0.810  1.00  0.00    -0.047 A 
ATOM      8  C   UNL     1       6.604  -0.961   0.077  1.00  0.00     0.004 A 
ATOM      9  C   UNL     1       5.864   1.238  -0.334  1.00  0.00     0.004 A 
ATOM     10  C   UNL     1       6.126  -0.892   1.365  1.00  0.00     0.000 A 
ATOM     11  C   UNL     1       5.385   1.306   0.957  1.00  0.00     0.000 A 
ATOM     12  C   UNL     1       5.504   0.249   1.830  1.00  0.00     0.000 A 
ENDBRANCH   6   7
ENDBRANCH   1   6
TORSDOF 4
ENDMDL
MODEL 3
REMARK VINA RESULT:      -6.8      3.397      5.082
REMARK SMILES O=C(O)CCc1ccccc1
REMARK SMILES IDX 4 1 2 2 1 3 3 4 5 6 6 7 7 8 11 9 8 10 10 11 9 12
REMARK H PARENT 3 5
REMARK Flexibility Score: inf
ROOT
ATOM      1  C   UNL     1       4.986   1.808   0.691  1.00  0.00     0.127 C 
ENDROOT
BRANCH   1   2
ATOM      2  C   UNL     1       4.479   1.138   1.902  1.00  0.00     0.303 C 
ATOM      3  O   UNL     1       5.183   0.246   2.449  1.00  0.00    -0.252 OA
BRANCH   2   4
ATOM      4  O   UNL     1       3.238   1.459   2.470  1.00  0.00    -0.481 OA
ATOM      5  H   UNL     1       3.223   1.917   3.371  1.00  0.00     0.296 HD
ENDBRANCH   2   4
ENDBRANCH   1   2
BRANCH   1   6
ATOM      6  C   UNL     1       6.497   1.951   0.705  1.00  0.00     0.047 C 
BRANCH   6   7
ATOM      7  C   UNL     1       7.120   1.119  -0.357  1.00  0.00    -0.047 A 
ATOM      8  C   UNL     1       8.486   1.179  -0.593  1.00  0.00     0.004 A 
ATOM      9  C   UNL     1       6.391   0.262  -1.161  1.00  0.00     0.004 A 
ATOM     10  C   UNL     1       9.092   0.430  -1.575  1.00  0.00     0.000 A 
ATOM     11  C   UNL     1       6.999  -0.488  -2.145  1.00  0.00     0.000 A 
ATOM     12  C   UNL     1       8.355  -0.422  -2.374  1.00  0.00     0.000 A 
ENDBRANCH   6   7
ENDBRANCH   1   6
TORSDOF 4
ENDMDL
MODEL 4
REMARK VINA RESULT:      -6.6      3.355      5.127
REMARK SMILES O=C(O)CCc1ccccc1
REMARK SMILES IDX 4 1 2 2 1 3 3 4 5 6 6 7 7 8 11 9 8 10 10 11 9 12
REMARK H PARENT 3 5
REMARK Flexibility Score: inf
ROOT
ATOM      1  C   UNL     1       5.043   1.782   0.752  1.00  0.00     0.127 C 
ENDROOT
BRANCH   1   2
ATOM      2  C   UNL     1       4.542   1.062   1.936  1.00  0.00     0.303 C 
ATOM      3  O   UNL     1       3.414   1.369   2.408  1.00  0.00    -0.252 OA
BRANCH   2   4
ATOM      4  O   UNL     1       5.278   0.042   2.558  1.00  0.00    -0.481 OA
ATOM      5  H   UNL     1       5.404   0.080   3.560  1.00  0.00     0.296 HD
ENDBRANCH   2   4
ENDBRANCH   1   2
BRANCH   1   6
ATOM      6  C   UNL     1       6.555   1.920   0.761  1.00  0.00     0.047 C 
BRANCH   6   7
ATOM      7  C   UNL     1       7.171   1.105  -0.318  1.00  0.00    -0.047 A 
ATOM      8  C   UNL     1       6.429   0.146  -0.992  1.00  0.00     0.004 A 
ATOM      9  C   UNL     1       8.493   1.245  -0.700  1.00  0.00     0.004 A 
ATOM     10  C   UNL     1       6.973  -0.632  -1.988  1.00  0.00     0.000 A 
ATOM     11  C   UNL     1       9.036   0.465  -1.698  1.00  0.00     0.000 A 
ATOM     12  C   UNL     1       8.294  -0.486  -2.361  1.00  0.00     0.000 A 
ENDBRANCH   6   7
ENDBRANCH   1   6
TORSDOF 4
ENDMDL
MODEL 5
REMARK VINA RESULT:      -6.6      1.950      2.666
REMARK SMILES O=C(O)CCc1ccccc1
REMARK SMILES IDX 4 1 2 2 1 3 3 4 5 6 6 7 7 8 11 9 8 10 10 11 9 12
REMARK H PARENT 3 5
REMARK Flexibility Score: inf
ROOT
ATOM      1  C   UNL     1       8.287   0.041  -2.170  1.00  0.00     0.127 C 
ENDROOT
BRANCH   1   2
ATOM      2  C   UNL     1       9.382   0.301  -1.219  1.00  0.00     0.303 C 
ATOM      3  O   UNL     1       9.470  -0.406  -0.178  1.00  0.00    -0.252 OA
BRANCH   2   4
ATOM      4  O   UNL     1      10.334   1.308  -1.432  1.00  0.00    -0.481 OA
ATOM      5  H   UNL     1      11.299   1.040  -1.572  1.00  0.00     0.296 HD
ENDBRANCH   2   4
ENDBRANCH   1   2
BRANCH   1   6
ATOM      6  C   UNL     1       7.133  -0.707  -1.526  1.00  0.00     0.047 C 
BRANCH   6   7
ATOM      7  C   UNL     1       6.361   0.183  -0.620  1.00  0.00    -0.047 A 
ATOM      8  C   UNL     1       6.096  -0.196   0.689  1.00  0.00     0.004 A 
ATOM      9  C   UNL     1       5.863   1.409  -1.020  1.00  0.00     0.004 A 
ATOM     10  C   UNL     1       5.376   0.600   1.549  1.00  0.00     0.000 A 
ATOM     11  C   UNL     1       5.141   2.206  -0.158  1.00  0.00     0.000 A 
ATOM     12  C   UNL     1       4.882   1.822   1.138  1.00  0.00     0.000 A 
ENDBRANCH   6   7
ENDBRANCH   1   6
TORSDOF 4
ENDMDL
