@<TRIPOS>MOLECULE
/home/cewinharhar/GITHUB/reincatalyze/data/processed/docking_pred/2023-Apr-25-2248_maxeplen10_maxtrainstep1000_exh16_gamma099_lrac3e-4_lrcr1e-3/25fd2f55844bdf9fb92a90adf0bdb598f7a2ad59_ligand_2.pdbqt
 12 12 0 0 0
SMALL
GASTEIGER

@<TRIPOS>ATOM
      1  C          8.4010   -0.6090   -2.2130 C.3     1  UNL1        0.1270
      2  C          8.4520   -1.8940   -2.9320 C.2     1  UNL1        0.3030
      3  O          9.5670   -2.4560   -3.1040 O.2     1  UNL1       -0.2520
      4  O          7.2990   -2.5170   -3.4330 O.3     1  UNL1       -0.4810
      5  H          6.8730   -2.1430   -4.2700 H       1  UNL1        0.2960
      6  C          7.0050   -0.0130   -2.1990 C.3     1  UNL1        0.0470
      7  C          6.4870    0.0990   -0.8100 C.2     1  UNL1       -0.0470
      8  C          6.6040   -0.9610    0.0770 C.2     1  UNL1        0.0040
      9  C          5.8640    1.2380   -0.3340 C.2     1  UNL1        0.0040
     10  C          6.1260   -0.8920    1.3650 C.2     1  UNL1        0.0000
     11  C          5.3850    1.3060    0.9570 C.2     1  UNL1        0.0000
     12  C          5.5040    0.2490    1.8300 C.2     1  UNL1        0.0000
@<TRIPOS>BOND
     1     5     4    1
     2     4     2    1
     3     3     2    2
     4     2     1    1
     5     1     6    1
     6     6     7    1
     7     7     9    2
     8     7     8    1
     9     9    11    1
    10     8    10    2
    11    11    12    2
    12    10    12    1
