@<TRIPOS>MOLECULE
/home/cewinharhar/GITHUB/reincatalyze/data/processed/docking_pred/2023-Apr-25-2248_maxeplen10_maxtrainstep1000_exh16_gamma099_lrac3e-4_lrcr1e-3/25fd2f55844bdf9fb92a90adf0bdb598f7a2ad59_ligand_2.pdbqt
 12 12 0 0 0
SMALL
GASTEIGER

@<TRIPOS>ATOM
      1  C          8.2870    0.0410   -2.1700 C.3     1  UNL1        0.1270
      2  C          9.3820    0.3010   -1.2190 C.2     1  UNL1        0.3030
      3  O          9.4700   -0.4060   -0.1780 O.2     1  UNL1       -0.2520
      4  O         10.3340    1.3080   -1.4320 O.3     1  UNL1       -0.4810
      5  H         11.2990    1.0400   -1.5720 H       1  UNL1        0.2960
      6  C          7.1330   -0.7070   -1.5260 C.3     1  UNL1        0.0470
      7  C          6.3610    0.1830   -0.6200 C.2     1  UNL1       -0.0470
      8  C          6.0960   -0.1960    0.6890 C.2     1  UNL1        0.0040
      9  C          5.8630    1.4090   -1.0200 C.2     1  UNL1        0.0040
     10  C          5.3760    0.6000    1.5490 C.2     1  UNL1        0.0000
     11  C          5.1410    2.2060   -0.1580 C.2     1  UNL1        0.0000
     12  C          4.8820    1.8220    1.1380 C.2     1  UNL1        0.0000
@<TRIPOS>BOND
     1     1     6    1
     2     1     2    1
     3     5     4    1
     4     6     7    1
     5     4     2    1
     6     2     3    2
     7     9     7    2
     8     9    11    1
     9     7     8    1
    10    11    12    2
    11     8    10    2
    12    12    10    1
