@<TRIPOS>MOLECULE
/home/cewinharhar/GITHUB/reincatalyze/data/processed/docking_pred/2023-Apr-25-2248_maxeplen10_maxtrainstep1000_exh16_gamma099_lrac3e-4_lrcr1e-3/25fd2f55844bdf9fb92a90adf0bdb598f7a2ad59_ligand_2.pdbqt
 12 12 0 0 0
SMALL
GASTEIGER

@<TRIPOS>ATOM
      1  C          8.4400   -0.6480   -2.1590 C.3     1  UNL1        0.1270
      2  C          8.4570   -1.9160   -2.9090 C.2     1  UNL1        0.3030
      3  O          9.5550   -2.5150   -3.0740 O.2     1  UNL1       -0.2520
      4  O          7.2930   -2.4830   -3.4470 O.3     1  UNL1       -0.4810
      5  H          6.8770   -2.0520   -4.2620 H       1  UNL1        0.2960
      6  C          7.0670   -0.0000   -2.1580 C.3     1  UNL1        0.0470
      7  C          6.5100    0.0680   -0.7820 C.2     1  UNL1       -0.0470
      8  C          5.8440    1.2030   -0.3430 C.2     1  UNL1        0.0040
      9  C          6.6290   -0.9690    0.1250 C.2     1  UNL1        0.0040
     10  C          5.3270    1.3010    0.9280 C.2     1  UNL1        0.0000
     11  C          6.1100   -0.8690    1.3980 C.2     1  UNL1        0.0000
     12  C          5.4520    0.2610    1.8270 C.2     1  UNL1        0.0000
@<TRIPOS>BOND
     1     5     4    1
     2     4     2    1
     3     3     2    2
     4     2     1    1
     5     1     6    1
     6     6     7    1
     7     7     8    2
     8     7     9    1
     9     8    10    1
    10     9    11    2
    11    10    12    2
    12    11    12    1
