@<TRIPOS>MOLECULE
/home/cewinharhar/GITHUB/reincatalyze/data/processed/docking_pred/2023-Apr-25-2248_maxeplen10_maxtrainstep1000_exh16_gamma099_lrac3e-4_lrcr1e-3/25fd2f55844bdf9fb92a90adf0bdb598f7a2ad59_ligand_2.pdbqt
 12 12 0 0 0
SMALL
GASTEIGER

@<TRIPOS>ATOM
      1  C          4.9860    1.8080    0.6910 C.3     1  UNL1        0.1270
      2  C          4.4790    1.1380    1.9020 C.2     1  UNL1        0.3030
      3  O          5.1830    0.2460    2.4490 O.2     1  UNL1       -0.2520
      4  O          3.2380    1.4590    2.4700 O.3     1  UNL1       -0.4810
      5  H          3.2230    1.9170    3.3710 H       1  UNL1        0.2960
      6  C          6.4970    1.9510    0.7050 C.3     1  UNL1        0.0470
      7  C          7.1200    1.1190   -0.3570 C.2     1  UNL1       -0.0470
      8  C          8.4860    1.1790   -0.5930 C.2     1  UNL1        0.0040
      9  C          6.3910    0.2620   -1.1610 C.2     1  UNL1        0.0040
     10  C          9.0920    0.4300   -1.5750 C.2     1  UNL1        0.0000
     11  C          6.9990   -0.4880   -2.1450 C.2     1  UNL1        0.0000
     12  C          8.3550   -0.4220   -2.3740 C.2     1  UNL1        0.0000
@<TRIPOS>BOND
     1    12    11    2
     2    12    10    1
     3    11     9    1
     4    10     8    2
     5     9     7    2
     6     8     7    1
     7     7     6    1
     8     1     6    1
     9     1     2    1
    10     2     3    2
    11     2     4    1
    12     4     5    1
