@<TRIPOS>MOLECULE
/home/cewinharhar/GITHUB/reincatalyze/data/processed/docking_pred/2023-Apr-25-2248_maxeplen10_maxtrainstep1000_exh16_gamma099_lrac3e-4_lrcr1e-3/25fd2f55844bdf9fb92a90adf0bdb598f7a2ad59_ligand_2.pdbqt
 12 12 0 0 0
SMALL
GASTEIGER

@<TRIPOS>ATOM
      1  C          5.0430    1.7820    0.7520 C.3     1  UNL1        0.1270
      2  C          4.5420    1.0620    1.9360 C.2     1  UNL1        0.3030
      3  O          3.4140    1.3690    2.4080 O.2     1  UNL1       -0.2520
      4  O          5.2780    0.0420    2.5580 O.3     1  UNL1       -0.4810
      5  H          5.4040    0.0800    3.5600 H       1  UNL1        0.2960
      6  C          6.5550    1.9200    0.7610 C.3     1  UNL1        0.0470
      7  C          7.1710    1.1050   -0.3180 C.2     1  UNL1       -0.0470
      8  C          6.4290    0.1460   -0.9920 C.2     1  UNL1        0.0040
      9  C          8.4930    1.2450   -0.7000 C.2     1  UNL1        0.0040
     10  C          6.9730   -0.6320   -1.9880 C.2     1  UNL1        0.0000
     11  C          9.0360    0.4650   -1.6980 C.2     1  UNL1        0.0000
     12  C          8.2940   -0.4860   -2.3610 C.2     1  UNL1        0.0000
@<TRIPOS>BOND
     1    12    10    2
     2    12    11    1
     3    10     8    1
     4    11     9    2
     5     8     7    2
     6     9     7    1
     7     7     6    1
     8     1     6    1
     9     1     2    1
    10     2     3    2
    11     2     4    1
    12     4     5    1
