@<TRIPOS>MOLECULE
/home/cewinharhar/GITHUB/reincatalyze/data/processed/docking_pred/2023-Apr-25-2248_maxeplen10_maxtrainstep1000_exh16_gamma099_lrac3e-4_lrcr1e-3/2734134eb9e7fe1a9a1e6734a306fe03ba38cdbb_ligand_2.pdbqt
 12 12 0 0 0
SMALL
GASTEIGER

@<TRIPOS>ATOM
      1  C          8.4110   -0.6050   -2.1930 C.3     1  UNL1        0.1270
      2  C          8.4440   -1.8910   -2.9130 C.2     1  UNL1        0.3030
      3  O          9.5530   -2.4640   -3.0910 O.2     1  UNL1       -0.2520
      4  O          7.2830   -2.5020   -3.4070 O.3     1  UNL1       -0.4810
      5  H          6.4630   -2.5310   -2.8160 H       1  UNL1        0.2960
      6  C          7.0180   -0.0020   -2.1620 C.3     1  UNL1        0.0470
      7  C          6.4930    0.0530   -0.7720 C.2     1  UNL1       -0.0470
      8  C          5.8520    1.1900   -0.3020 C.2     1  UNL1        0.0040
      9  C          6.6170   -0.9990    0.1160 C.2     1  UNL1        0.0040
     10  C          5.3640    1.2750    0.9820 C.2     1  UNL1        0.0000
     11  C          6.1270   -0.9120    1.4020 C.2     1  UNL1        0.0000
     12  C          5.4940    0.2200    1.8620 C.2     1  UNL1        0.0000
@<TRIPOS>BOND
     1     4     2    1
     2     4     5    1
     3     3     2    2
     4     2     1    1
     5     1     6    1
     6     6     7    1
     7     7     8    2
     8     7     9    1
     9     8    10    1
    10     9    11    2
    11    10    12    2
    12    11    12    1
