@<TRIPOS>MOLECULE
/home/cewinharhar/GITHUB/reincatalyze/data/processed/docking_pred/2023-Apr-25-2248_maxeplen10_maxtrainstep1000_exh16_gamma099_lrac3e-4_lrcr1e-3/2734134eb9e7fe1a9a1e6734a306fe03ba38cdbb_ligand_2.pdbqt
 12 12 0 0 0
SMALL
GASTEIGER

@<TRIPOS>ATOM
      1  C          5.0030    1.7960    0.7130 C.3     1  UNL1        0.1270
      2  C          4.4770    1.1260    1.9160 C.2     1  UNL1        0.3030
      3  O          5.1660    0.2250    2.4650 O.2     1  UNL1       -0.2520
      4  O          3.2340    1.4590    2.4740 O.3     1  UNL1       -0.4810
      5  H          2.3960    1.2340    1.9560 H       1  UNL1        0.2960
      6  C          6.5170    1.9100    0.7350 C.3     1  UNL1        0.0470
      7  C          7.1290    1.0840   -0.3390 C.2     1  UNL1       -0.0470
      8  C          8.4720    1.2210   -0.6580 C.2     1  UNL1        0.0040
      9  C          6.4100    0.1580   -1.0730 C.2     1  UNL1        0.0040
     10  C          9.0660    0.4790   -1.6530 C.2     1  UNL1        0.0000
     11  C          7.0060   -0.5850   -2.0690 C.2     1  UNL1        0.0000
     12  C          8.3390   -0.4420   -2.3810 C.2     1  UNL1        0.0000
@<TRIPOS>BOND
     1    12    11    2
     2    12    10    1
     3    11     9    1
     4    10     8    2
     5     9     7    2
     6     8     7    1
     7     7     6    1
     8     1     6    1
     9     1     2    1
    10     2     3    2
    11     2     4    1
    12     5     4    1
