@<TRIPOS>MOLECULE
/home/cewinharhar/GITHUB/reincatalyze/data/processed/docking_pred/2023-Apr-25-2248_maxeplen10_maxtrainstep1000_exh16_gamma099_lrac3e-4_lrcr1e-3/2734134eb9e7fe1a9a1e6734a306fe03ba38cdbb_ligand_2.pdbqt
 12 12 0 0 0
SMALL
GASTEIGER

@<TRIPOS>ATOM
      1  C          8.0870   -1.5930    1.1300 C.3     1  UNL1        0.1270
      2  C          8.4310   -2.7740    0.3200 C.2     1  UNL1        0.3030
      3  O          9.0950   -3.7070    0.8490 O.2     1  UNL1       -0.2520
      4  O          8.0440   -2.8990   -1.0220 O.3     1  UNL1       -0.4810
      5  H          8.3850   -2.2200   -1.6890 H       1  UNL1        0.2960
      6  C          6.5910   -1.4690    1.3580 C.3     1  UNL1        0.0470
      7  C          6.0750   -0.1840    0.8180 C.2     1  UNL1       -0.0470
      8  C          6.3290    0.1840   -0.4960 C.2     1  UNL1        0.0040
      9  C          5.3360    0.7050    1.5770 C.2     1  UNL1        0.0040
     10  C          5.8740    1.3710   -1.0230 C.2     1  UNL1        0.0000
     11  C          4.8810    1.8930    1.0480 C.2     1  UNL1        0.0000
     12  C          5.1380    2.2520   -0.2550 C.2     1  UNL1        0.0000
@<TRIPOS>BOND
     1     5     4    1
     2    10     8    1
     3    10    12    2
     4     4     2    1
     5     8     7    2
     6    12    11    1
     7     2     3    2
     8     2     1    1
     9     7     6    1
    10     7     9    1
    11    11     9    2
    12     1     6    1
