MODEL 1
REMARK VINA RESULT:      -7.3      0.000      0.000
REMARK SMILES O=C(O)CCc1ccccc1
REMARK SMILES IDX 4 1 2 2 1 3 3 4 5 6 6 7 7 8 11 9 8 10 10 11 9 12
REMARK H PARENT 3 5
REMARK Flexibility Score: inf
ROOT
ATOM      1  C   UNL     1       8.411  -0.605  -2.193  1.00  0.00     0.127 C 
ENDROOT
BRANCH   1   2
ATOM      2  C   UNL     1       8.444  -1.891  -2.913  1.00  0.00     0.303 C 
ATOM      3  O   UNL     1       9.553  -2.464  -3.091  1.00  0.00    -0.252 OA
BRANCH   2   4
ATOM      4  O   UNL     1       7.283  -2.502  -3.407  1.00  0.00    -0.481 OA
ATOM      5  H   UNL     1       6.463  -2.531  -2.816  1.00  0.00     0.296 HD
ENDBRANCH   2   4
ENDBRANCH   1   2
BRANCH   1   6
ATOM      6  C   UNL     1       7.018  -0.002  -2.162  1.00  0.00     0.047 C 
BRANCH   6   7
ATOM      7  C   UNL     1       6.493   0.053  -0.772  1.00  0.00    -0.047 A 
ATOM      8  C   UNL     1       5.852   1.190  -0.302  1.00  0.00     0.004 A 
ATOM      9  C   UNL     1       6.617  -0.999   0.116  1.00  0.00     0.004 A 
ATOM     10  C   UNL     1       5.364   1.275   0.982  1.00  0.00     0.000 A 
ATOM     11  C   UNL     1       6.127  -0.912   1.402  1.00  0.00     0.000 A 
ATOM     12  C   UNL     1       5.494   0.220   1.862  1.00  0.00     0.000 A 
ENDBRANCH   6   7
ENDBRANCH   1   6
TORSDOF 4
ENDMDL
MODEL 2
REMARK VINA RESULT:      -7.2      0.090      1.723
REMARK SMILES O=C(O)CCc1ccccc1
REMARK SMILES IDX 4 1 2 2 1 3 3 4 5 6 6 7 7 8 11 9 8 10 10 11 9 12
REMARK H PARENT 3 5
REMARK Flexibility Score: inf
ROOT
ATOM      1  C   UNL     1       8.382  -0.626  -2.156  1.00  0.00     0.127 C 
ENDROOT
BRANCH   1   2
ATOM      2  C   UNL     1       8.396  -1.898  -2.899  1.00  0.00     0.303 C 
ATOM      3  O   UNL     1       7.299  -2.423  -3.235  1.00  0.00    -0.252 OA
BRANCH   2   4
ATOM      4  O   UNL     1       9.588  -2.549  -3.247  1.00  0.00    -0.481 OA
ATOM      5  H   UNL     1       9.576  -3.198  -4.022  1.00  0.00     0.296 HD
ENDBRANCH   2   4
ENDBRANCH   1   2
BRANCH   1   6
ATOM      6  C   UNL     1       7.008   0.019  -2.146  1.00  0.00     0.047 C 
BRANCH   6   7
ATOM      7  C   UNL     1       6.471   0.109  -0.763  1.00  0.00    -0.047 A 
ATOM      8  C   UNL     1       6.612  -0.952   0.121  1.00  0.00     0.004 A 
ATOM      9  C   UNL     1       5.807   1.225  -0.289  1.00  0.00     0.004 A 
ATOM     10  C   UNL     1       6.118  -0.904   1.404  1.00  0.00     0.000 A 
ATOM     11  C   UNL     1       5.312   1.271   0.997  1.00  0.00     0.000 A 
ATOM     12  C   UNL     1       5.454   0.215   1.867  1.00  0.00     0.000 A 
ENDBRANCH   6   7
ENDBRANCH   1   6
TORSDOF 4
ENDMDL
MODEL 3
REMARK VINA RESULT:      -6.8      3.389      5.068
REMARK SMILES O=C(O)CCc1ccccc1
REMARK SMILES IDX 4 1 2 2 1 3 3 4 5 6 6 7 7 8 11 9 8 10 10 11 9 12
REMARK H PARENT 3 5
REMARK Flexibility Score: inf
ROOT
ATOM      1  C   UNL     1       5.003   1.796   0.713  1.00  0.00     0.127 C 
ENDROOT
BRANCH   1   2
ATOM      2  C   UNL     1       4.477   1.126   1.916  1.00  0.00     0.303 C 
ATOM      3  O   UNL     1       5.166   0.225   2.465  1.00  0.00    -0.252 OA
BRANCH   2   4
ATOM      4  O   UNL     1       3.234   1.459   2.474  1.00  0.00    -0.481 OA
ATOM      5  H   UNL     1       2.396   1.234   1.956  1.00  0.00     0.296 HD
ENDBRANCH   2   4
ENDBRANCH   1   2
BRANCH   1   6
ATOM      6  C   UNL     1       6.517   1.910   0.735  1.00  0.00     0.047 C 
BRANCH   6   7
ATOM      7  C   UNL     1       7.129   1.084  -0.339  1.00  0.00    -0.047 A 
ATOM      8  C   UNL     1       8.472   1.221  -0.658  1.00  0.00     0.004 A 
ATOM      9  C   UNL     1       6.410   0.158  -1.073  1.00  0.00     0.004 A 
ATOM     10  C   UNL     1       9.066   0.479  -1.653  1.00  0.00     0.000 A 
ATOM     11  C   UNL     1       7.006  -0.585  -2.069  1.00  0.00     0.000 A 
ATOM     12  C   UNL     1       8.339  -0.442  -2.381  1.00  0.00     0.000 A 
ENDBRANCH   6   7
ENDBRANCH   1   6
TORSDOF 4
ENDMDL
MODEL 4
REMARK VINA RESULT:      -6.6      1.886      2.940
REMARK SMILES O=C(O)CCc1ccccc1
REMARK SMILES IDX 4 1 2 2 1 3 3 4 5 6 6 7 7 8 11 9 8 10 10 11 9 12
REMARK H PARENT 3 5
REMARK Flexibility Score: inf
ROOT
ATOM      1  C   UNL     1       8.087  -1.593   1.130  1.00  0.00     0.127 C 
ENDROOT
BRANCH   1   2
ATOM      2  C   UNL     1       8.431  -2.774   0.320  1.00  0.00     0.303 C 
ATOM      3  O   UNL     1       9.095  -3.707   0.849  1.00  0.00    -0.252 OA
BRANCH   2   4
ATOM      4  O   UNL     1       8.044  -2.899  -1.022  1.00  0.00    -0.481 OA
ATOM      5  H   UNL     1       8.385  -2.220  -1.689  1.00  0.00     0.296 HD
ENDBRANCH   2   4
ENDBRANCH   1   2
BRANCH   1   6
ATOM      6  C   UNL     1       6.591  -1.469   1.358  1.00  0.00     0.047 C 
BRANCH   6   7
ATOM      7  C   UNL     1       6.075  -0.184   0.818  1.00  0.00    -0.047 A 
ATOM      8  C   UNL     1       6.329   0.184  -0.496  1.00  0.00     0.004 A 
ATOM      9  C   UNL     1       5.336   0.705   1.577  1.00  0.00     0.004 A 
ATOM     10  C   UNL     1       5.874   1.371  -1.023  1.00  0.00     0.000 A 
ATOM     11  C   UNL     1       4.881   1.893   1.048  1.00  0.00     0.000 A 
ATOM     12  C   UNL     1       5.138   2.252  -0.255  1.00  0.00     0.000 A 
ENDBRANCH   6   7
ENDBRANCH   1   6
TORSDOF 4
ENDMDL
MODEL 5
REMARK VINA RESULT:      -6.6      3.829      4.960
REMARK SMILES O=C(O)CCc1ccccc1
REMARK SMILES IDX 4 1 2 2 1 3 3 4 5 6 6 7 7 8 11 9 8 10 10 11 9 12
REMARK H PARENT 3 5
REMARK Flexibility Score: inf
ROOT
ATOM      1  C   UNL     1       5.727   3.081  -0.046  1.00  0.00     0.127 C 
ENDROOT
BRANCH   1   2
ATOM      2  C   UNL     1       6.436   4.000   0.863  1.00  0.00     0.303 C 
ATOM      3  O   UNL     1       7.312   4.774   0.390  1.00  0.00    -0.252 OA
BRANCH   2   4
ATOM      4  O   UNL     1       6.170   4.044   2.239  1.00  0.00    -0.481 OA
ATOM      5  H   UNL     1       5.606   4.802   2.598  1.00  0.00     0.296 HD
ENDBRANCH   2   4
ENDBRANCH   1   2
BRANCH   1   6
ATOM      6  C   UNL     1       4.914   2.043   0.707  1.00  0.00     0.047 C 
BRANCH   6   7
ATOM      7  C   UNL     1       5.661   0.764   0.824  1.00  0.00    -0.047 A 
ATOM      8  C   UNL     1       5.716   0.085   2.033  1.00  0.00     0.004 A 
ATOM      9  C   UNL     1       6.339   0.193  -0.237  1.00  0.00     0.004 A 
ATOM     10  C   UNL     1       6.407  -1.096   2.177  1.00  0.00     0.000 A 
ATOM     11  C   UNL     1       7.031  -0.990  -0.092  1.00  0.00     0.000 A 
ATOM     12  C   UNL     1       7.082  -1.657   1.111  1.00  0.00     0.000 A 
ENDBRANCH   6   7
ENDBRANCH   1   6
TORSDOF 4
ENDMDL
