@<TRIPOS>MOLECULE
/home/cewinharhar/GITHUB/reincatalyze/data/processed/docking_pred/2023-Apr-25-2248_maxeplen10_maxtrainstep1000_exh16_gamma099_lrac3e-4_lrcr1e-3/2734134eb9e7fe1a9a1e6734a306fe03ba38cdbb_ligand_2.pdbqt
 12 12 0 0 0
SMALL
GASTEIGER

@<TRIPOS>ATOM
      1  C          8.3820   -0.6260   -2.1560 C.3     1  UNL1        0.1270
      2  C          8.3960   -1.8980   -2.8990 C.2     1  UNL1        0.3030
      3  O          7.2990   -2.4230   -3.2350 O.2     1  UNL1       -0.2520
      4  O          9.5880   -2.5490   -3.2470 O.3     1  UNL1       -0.4810
      5  H          9.5760   -3.1980   -4.0220 H       1  UNL1        0.2960
      6  C          7.0080    0.0190   -2.1460 C.3     1  UNL1        0.0470
      7  C          6.4710    0.1090   -0.7630 C.2     1  UNL1       -0.0470
      8  C          6.6120   -0.9520    0.1210 C.2     1  UNL1        0.0040
      9  C          5.8070    1.2250   -0.2890 C.2     1  UNL1        0.0040
     10  C          6.1180   -0.9040    1.4040 C.2     1  UNL1        0.0000
     11  C          5.3120    1.2710    0.9970 C.2     1  UNL1        0.0000
     12  C          5.4540    0.2150    1.8670 C.2     1  UNL1        0.0000
@<TRIPOS>BOND
     1     5     4    1
     2     4     2    1
     3     3     2    2
     4     2     1    1
     5     1     6    1
     6     6     7    1
     7     7     9    2
     8     7     8    1
     9     9    11    1
    10     8    10    2
    11    11    12    2
    12    10    12    1
