@<TRIPOS>MOLECULE
/home/cewinharhar/GITHUB/reincatalyze/data/processed/docking_pred/2023-Apr-25-2248_maxeplen10_maxtrainstep1000_exh16_gamma099_lrac3e-4_lrcr1e-3/2734134eb9e7fe1a9a1e6734a306fe03ba38cdbb_ligand_2.pdbqt
 12 12 0 0 0
SMALL
GASTEIGER

@<TRIPOS>ATOM
      1  C          5.7270    3.0810   -0.0460 C.3     1  UNL1        0.1270
      2  C          6.4360    4.0000    0.8630 C.2     1  UNL1        0.3030
      3  O          7.3120    4.7740    0.3900 O.2     1  UNL1       -0.2520
      4  O          6.1700    4.0440    2.2390 O.3     1  UNL1       -0.4810
      5  H          5.6060    4.8020    2.5980 H       1  UNL1        0.2960
      6  C          4.9140    2.0430    0.7070 C.3     1  UNL1        0.0470
      7  C          5.6610    0.7640    0.8240 C.2     1  UNL1       -0.0470
      8  C          5.7160    0.0850    2.0330 C.2     1  UNL1        0.0040
      9  C          6.3390    0.1930   -0.2370 C.2     1  UNL1        0.0040
     10  C          6.4070   -1.0960    2.1770 C.2     1  UNL1        0.0000
     11  C          7.0310   -0.9900   -0.0920 C.2     1  UNL1        0.0000
     12  C          7.0820   -1.6570    1.1110 C.2     1  UNL1        0.0000
@<TRIPOS>BOND
     1     9    11    1
     2     9     7    2
     3    11    12    2
     4     1     6    1
     5     1     2    1
     6     3     2    2
     7     6     7    1
     8     7     8    1
     9     2     4    1
    10    12    10    1
    11     8    10    2
    12     4     5    1
