@<TRIPOS>MOLECULE
/home/cewinharhar/GITHUB/reincatalyze/data/processed/docking_pred/2023-Apr-25-2248_maxeplen10_maxtrainstep1000_exh16_gamma099_lrac3e-4_lrcr1e-3/287d700aa29cdd08db1558ad291e1b5912b75232_ligand_2.pdbqt
 12 12 0 0 0
SMALL
GASTEIGER

@<TRIPOS>ATOM
      1  C          8.2840    0.1340   -2.1700 C.3     1  UNL1        0.1270
      2  C          9.3980    0.3610   -1.2330 C.2     1  UNL1        0.3030
      3  O          9.4940   -0.3680   -0.2080 O.2     1  UNL1       -0.2520
      4  O         10.3590    1.3610   -1.4410 O.3     1  UNL1       -0.4810
      5  H         10.1280    2.3130   -1.1880 H       1  UNL1        0.2960
      6  C          7.1580   -0.6670   -1.5410 C.3     1  UNL1        0.0470
      7  C          6.3690    0.1710   -0.6010 C.2     1  UNL1       -0.0470
      8  C          5.8470    1.3910   -1.0080 C.2     1  UNL1        0.0040
      9  C          6.1230   -0.2010    0.7080 C.2     1  UNL1        0.0040
     10  C          5.1220    2.1940   -0.1580 C.2     1  UNL1        0.0000
     11  C          5.3960    0.6050    1.5570 C.2     1  UNL1        0.0000
     12  C          4.8830    1.8140    1.1470 C.2     1  UNL1        0.0000
@<TRIPOS>BOND
     1     1     6    1
     2     1     2    1
     3     6     7    1
     4     4     2    1
     5     4     5    1
     6     2     3    2
     7     8     7    2
     8     8    10    1
     9     7     9    1
    10    10    12    2
    11     9    11    2
    12    12    11    1
