@<TRIPOS>MOLECULE
/home/cewinharhar/GITHUB/reincatalyze/data/processed/docking_pred/2023-Apr-25-2248_maxeplen10_maxtrainstep1000_exh16_gamma099_lrac3e-4_lrcr1e-3/287d700aa29cdd08db1558ad291e1b5912b75232_ligand_2.pdbqt
 12 12 0 0 0
SMALL
GASTEIGER

@<TRIPOS>ATOM
      1  C          8.3200   -1.0520   -1.6620 C.3     1  UNL1        0.1270
      2  C          8.3500   -2.0280   -2.7660 C.2     1  UNL1        0.3030
      3  O          7.2630   -2.4040   -3.2810 O.2     1  UNL1       -0.2520
      4  O          9.5500   -2.5540   -3.2670 O.3     1  UNL1       -0.4810
      5  H         10.0690   -3.2050   -2.6930 H       1  UNL1        0.2960
      6  C          7.4430   -1.5140   -0.5120 C.3     1  UNL1        0.0470
      7  C          6.5900   -0.4040   -0.0140 C.2     1  UNL1       -0.0470
      8  C          6.2700    0.6670   -0.8360 C.2     1  UNL1        0.0040
      9  C          6.0840   -0.3680    1.2730 C.2     1  UNL1        0.0040
     10  C          5.4910    1.7150   -0.4020 C.2     1  UNL1        0.0000
     11  C          5.3040    0.6830    1.7070 C.2     1  UNL1        0.0000
     12  C          4.9920    1.7420    0.8850 C.2     1  UNL1        0.0000
@<TRIPOS>BOND
     1     3     2    2
     2     4     2    1
     3     4     5    1
     4     2     1    1
     5     1     6    1
     6     8    10    1
     7     8     7    2
     8     6     7    1
     9    10    12    2
    10     7     9    1
    11    12    11    1
    12     9    11    2
