@<TRIPOS>MOLECULE
/home/cewinharhar/GITHUB/reincatalyze/data/processed/docking_pred/2023-Apr-25-2248_maxeplen10_maxtrainstep1000_exh16_gamma099_lrac3e-4_lrcr1e-3/287d700aa29cdd08db1558ad291e1b5912b75232_ligand_2.pdbqt
 12 12 0 0 0
SMALL
GASTEIGER

@<TRIPOS>ATOM
      1  C          8.3720   -0.6300   -2.1470 C.3     1  UNL1        0.1270
      2  C          8.3800   -1.8990   -2.8950 C.2     1  UNL1        0.3030
      3  O          7.2830   -2.4090   -3.2490 O.2     1  UNL1       -0.2520
      4  O          9.5700   -2.5620   -3.2300 O.3     1  UNL1       -0.4810
      5  H          9.8860   -2.5320   -4.1900 H       1  UNL1        0.2960
      6  C          7.0030    0.0270   -2.1480 C.3     1  UNL1        0.0470
      7  C          6.4600    0.1280   -0.7680 C.2     1  UNL1       -0.0470
      8  C          6.6050   -0.9220    0.1280 C.2     1  UNL1        0.0040
      9  C          5.7850    1.2440   -0.3090 C.2     1  UNL1        0.0040
     10  C          6.1050   -0.8640    1.4080 C.2     1  UNL1        0.0000
     11  C          5.2840    1.3010    0.9740 C.2     1  UNL1        0.0000
     12  C          5.4310    0.2550    1.8570 C.2     1  UNL1        0.0000
@<TRIPOS>BOND
     1     5     4    1
     2     3     2    2
     3     4     2    1
     4     2     1    1
     5     6     1    1
     6     6     7    1
     7     7     9    2
     8     7     8    1
     9     9    11    1
    10     8    10    2
    11    11    12    2
    12    10    12    1
