MODEL 1
REMARK VINA RESULT:      -7.2      0.000      0.000
REMARK SMILES O=C(O)CCc1ccccc1
REMARK SMILES IDX 4 1 2 2 1 3 3 4 5 6 6 7 7 8 11 9 8 10 10 11 9 12
REMARK H PARENT 3 5
REMARK Flexibility Score: inf
ROOT
ATOM      1  C   UNL     1       8.372  -0.630  -2.147  1.00  0.00     0.127 C 
ENDROOT
BRANCH   1   2
ATOM      2  C   UNL     1       8.380  -1.899  -2.895  1.00  0.00     0.303 C 
ATOM      3  O   UNL     1       7.283  -2.409  -3.249  1.00  0.00    -0.252 OA
BRANCH   2   4
ATOM      4  O   UNL     1       9.570  -2.562  -3.230  1.00  0.00    -0.481 OA
ATOM      5  H   UNL     1       9.886  -2.532  -4.190  1.00  0.00     0.296 HD
ENDBRANCH   2   4
ENDBRANCH   1   2
BRANCH   1   6
ATOM      6  C   UNL     1       7.003   0.027  -2.148  1.00  0.00     0.047 C 
BRANCH   6   7
ATOM      7  C   UNL     1       6.460   0.128  -0.768  1.00  0.00    -0.047 A 
ATOM      8  C   UNL     1       6.605  -0.922   0.128  1.00  0.00     0.004 A 
ATOM      9  C   UNL     1       5.785   1.244  -0.309  1.00  0.00     0.004 A 
ATOM     10  C   UNL     1       6.105  -0.864   1.408  1.00  0.00     0.000 A 
ATOM     11  C   UNL     1       5.284   1.301   0.974  1.00  0.00     0.000 A 
ATOM     12  C   UNL     1       5.431   0.255   1.857  1.00  0.00     0.000 A 
ENDBRANCH   6   7
ENDBRANCH   1   6
TORSDOF 4
ENDMDL
MODEL 2
REMARK VINA RESULT:      -7.2      0.027      1.421
REMARK SMILES O=C(O)CCc1ccccc1
REMARK SMILES IDX 4 1 2 2 1 3 3 4 5 6 6 7 7 8 11 9 8 10 10 11 9 12
REMARK H PARENT 3 5
REMARK Flexibility Score: inf
ROOT
ATOM      1  C   UNL     1       8.372  -0.605  -2.184  1.00  0.00     0.127 C 
ENDROOT
BRANCH   1   2
ATOM      2  C   UNL     1       8.383  -1.891  -2.903  1.00  0.00     0.303 C 
ATOM      3  O   UNL     1       7.287  -2.409  -3.250  1.00  0.00    -0.252 OA
BRANCH   2   4
ATOM      4  O   UNL     1       9.574  -2.562  -3.218  1.00  0.00    -0.481 OA
ATOM      5  H   UNL     1      10.345  -2.027  -3.596  1.00  0.00     0.296 HD
ENDBRANCH   2   4
ENDBRANCH   1   2
BRANCH   1   6
ATOM      6  C   UNL     1       6.990   0.024  -2.157  1.00  0.00     0.047 C 
BRANCH   6   7
ATOM      7  C   UNL     1       6.461   0.087  -0.769  1.00  0.00    -0.047 A 
ATOM      8  C   UNL     1       5.786   1.213  -0.319  1.00  0.00     0.004 A 
ATOM      9  C   UNL     1       6.616  -0.945   0.138  1.00  0.00     0.004 A 
ATOM     10  C   UNL     1       5.293   1.306   0.962  1.00  0.00     0.000 A 
ATOM     11  C   UNL     1       6.122  -0.850   1.422  1.00  0.00     0.000 A 
ATOM     12  C   UNL     1       5.454   0.270   1.861  1.00  0.00     0.000 A 
ENDBRANCH   6   7
ENDBRANCH   1   6
TORSDOF 4
ENDMDL
MODEL 3
REMARK VINA RESULT:      -7.1      0.663      1.648
REMARK SMILES O=C(O)CCc1ccccc1
REMARK SMILES IDX 4 1 2 2 1 3 3 4 5 6 6 7 7 8 11 9 8 10 10 11 9 12
REMARK H PARENT 3 5
REMARK Flexibility Score: inf
ROOT
ATOM      1  C   UNL     1       8.320  -1.052  -1.662  1.00  0.00     0.127 C 
ENDROOT
BRANCH   1   2
ATOM      2  C   UNL     1       8.350  -2.028  -2.766  1.00  0.00     0.303 C 
ATOM      3  O   UNL     1       7.263  -2.404  -3.281  1.00  0.00    -0.252 OA
BRANCH   2   4
ATOM      4  O   UNL     1       9.550  -2.554  -3.267  1.00  0.00    -0.481 OA
ATOM      5  H   UNL     1      10.069  -3.205  -2.693  1.00  0.00     0.296 HD
ENDBRANCH   2   4
ENDBRANCH   1   2
BRANCH   1   6
ATOM      6  C   UNL     1       7.443  -1.514  -0.512  1.00  0.00     0.047 C 
BRANCH   6   7
ATOM      7  C   UNL     1       6.590  -0.404  -0.014  1.00  0.00    -0.047 A 
ATOM      8  C   UNL     1       6.270   0.667  -0.836  1.00  0.00     0.004 A 
ATOM      9  C   UNL     1       6.084  -0.368   1.273  1.00  0.00     0.004 A 
ATOM     10  C   UNL     1       5.491   1.715  -0.402  1.00  0.00     0.000 A 
ATOM     11  C   UNL     1       5.304   0.683   1.707  1.00  0.00     0.000 A 
ATOM     12  C   UNL     1       4.992   1.742   0.885  1.00  0.00     0.000 A 
ENDBRANCH   6   7
ENDBRANCH   1   6
TORSDOF 4
ENDMDL
MODEL 4
REMARK VINA RESULT:      -6.8      3.321      5.160
REMARK SMILES O=C(O)CCc1ccccc1
REMARK SMILES IDX 4 1 2 2 1 3 3 4 5 6 6 7 7 8 11 9 8 10 10 11 9 12
REMARK H PARENT 3 5
REMARK Flexibility Score: inf
ROOT
ATOM      1  C   UNL     1       5.002   1.795   0.724  1.00  0.00     0.127 C 
ENDROOT
BRANCH   1   2
ATOM      2  C   UNL     1       4.473   1.118   1.921  1.00  0.00     0.303 C 
ATOM      3  O   UNL     1       5.158   0.209   2.463  1.00  0.00    -0.252 OA
BRANCH   2   4
ATOM      4  O   UNL     1       3.231   1.451   2.481  1.00  0.00    -0.481 OA
ATOM      5  H   UNL     1       2.615   2.062   1.961  1.00  0.00     0.296 HD
ENDBRANCH   2   4
ENDBRANCH   1   2
BRANCH   1   6
ATOM      6  C   UNL     1       6.517   1.900   0.747  1.00  0.00     0.047 C 
BRANCH   6   7
ATOM      7  C   UNL     1       7.124   1.078  -0.333  1.00  0.00    -0.047 A 
ATOM      8  C   UNL     1       8.466   1.214  -0.656  1.00  0.00     0.004 A 
ATOM      9  C   UNL     1       6.400   0.159  -1.070  1.00  0.00     0.004 A 
ATOM     10  C   UNL     1       9.055   0.476  -1.657  1.00  0.00     0.000 A 
ATOM     11  C   UNL     1       6.991  -0.580  -2.073  1.00  0.00     0.000 A 
ATOM     12  C   UNL     1       8.324  -0.439  -2.388  1.00  0.00     0.000 A 
ENDBRANCH   6   7
ENDBRANCH   1   6
TORSDOF 4
ENDMDL
MODEL 5
REMARK VINA RESULT:      -6.6      1.946      2.615
REMARK SMILES O=C(O)CCc1ccccc1
REMARK SMILES IDX 4 1 2 2 1 3 3 4 5 6 6 7 7 8 11 9 8 10 10 11 9 12
REMARK H PARENT 3 5
REMARK Flexibility Score: inf
ROOT
ATOM      1  C   UNL     1       8.284   0.134  -2.170  1.00  0.00     0.127 C 
ENDROOT
BRANCH   1   2
ATOM      2  C   UNL     1       9.398   0.361  -1.233  1.00  0.00     0.303 C 
ATOM      3  O   UNL     1       9.494  -0.368  -0.208  1.00  0.00    -0.252 OA
BRANCH   2   4
ATOM      4  O   UNL     1      10.359   1.361  -1.441  1.00  0.00    -0.481 OA
ATOM      5  H   UNL     1      10.128   2.313  -1.188  1.00  0.00     0.296 HD
ENDBRANCH   2   4
ENDBRANCH   1   2
BRANCH   1   6
ATOM      6  C   UNL     1       7.158  -0.667  -1.541  1.00  0.00     0.047 C 
BRANCH   6   7
ATOM      7  C   UNL     1       6.369   0.171  -0.601  1.00  0.00    -0.047 A 
ATOM      8  C   UNL     1       5.847   1.391  -1.008  1.00  0.00     0.004 A 
ATOM      9  C   UNL     1       6.123  -0.201   0.708  1.00  0.00     0.004 A 
ATOM     10  C   UNL     1       5.122   2.194  -0.158  1.00  0.00     0.000 A 
ATOM     11  C   UNL     1       5.396   0.605   1.557  1.00  0.00     0.000 A 
ATOM     12  C   UNL     1       4.883   1.814   1.147  1.00  0.00     0.000 A 
ENDBRANCH   6   7
ENDBRANCH   1   6
TORSDOF 4
ENDMDL
