@<TRIPOS>MOLECULE
/home/cewinharhar/GITHUB/reincatalyze/data/processed/docking_pred/2023-Apr-25-2248_maxeplen10_maxtrainstep1000_exh16_gamma099_lrac3e-4_lrcr1e-3/287d700aa29cdd08db1558ad291e1b5912b75232_ligand_2.pdbqt
 12 12 0 0 0
SMALL
GASTEIGER

@<TRIPOS>ATOM
      1  C          5.0020    1.7950    0.7240 C.3     1  UNL1        0.1270
      2  C          4.4730    1.1180    1.9210 C.2     1  UNL1        0.3030
      3  O          5.1580    0.2090    2.4630 O.2     1  UNL1       -0.2520
      4  O          3.2310    1.4510    2.4810 O.3     1  UNL1       -0.4810
      5  H          2.6150    2.0620    1.9610 H       1  UNL1        0.2960
      6  C          6.5170    1.9000    0.7470 C.3     1  UNL1        0.0470
      7  C          7.1240    1.0780   -0.3330 C.2     1  UNL1       -0.0470
      8  C          8.4660    1.2140   -0.6560 C.2     1  UNL1        0.0040
      9  C          6.4000    0.1590   -1.0700 C.2     1  UNL1        0.0040
     10  C          9.0550    0.4760   -1.6570 C.2     1  UNL1        0.0000
     11  C          6.9910   -0.5800   -2.0730 C.2     1  UNL1        0.0000
     12  C          8.3240   -0.4390   -2.3880 C.2     1  UNL1        0.0000
@<TRIPOS>BOND
     1    12    11    2
     2    12    10    1
     3    11     9    1
     4    10     8    2
     5     9     7    2
     6     8     7    1
     7     7     6    1
     8     1     6    1
     9     1     2    1
    10     2     3    2
    11     2     4    1
    12     5     4    1
