@<TRIPOS>MOLECULE
/home/cewinharhar/GITHUB/reincatalyze/data/processed/docking_pred/2023-Apr-25-2248_maxeplen10_maxtrainstep1000_exh16_gamma099_lrac3e-4_lrcr1e-3/287d700aa29cdd08db1558ad291e1b5912b75232_ligand_2.pdbqt
 12 12 0 0 0
SMALL
GASTEIGER

@<TRIPOS>ATOM
      1  C          8.3720   -0.6050   -2.1840 C.3     1  UNL1        0.1270
      2  C          8.3830   -1.8910   -2.9030 C.2     1  UNL1        0.3030
      3  O          7.2870   -2.4090   -3.2500 O.2     1  UNL1       -0.2520
      4  O          9.5740   -2.5620   -3.2180 O.3     1  UNL1       -0.4810
      5  H         10.3450   -2.0270   -3.5960 H       1  UNL1        0.2960
      6  C          6.9900    0.0240   -2.1570 C.3     1  UNL1        0.0470
      7  C          6.4610    0.0870   -0.7690 C.2     1  UNL1       -0.0470
      8  C          5.7860    1.2130   -0.3190 C.2     1  UNL1        0.0040
      9  C          6.6160   -0.9450    0.1380 C.2     1  UNL1        0.0040
     10  C          5.2930    1.3060    0.9620 C.2     1  UNL1        0.0000
     11  C          6.1220   -0.8500    1.4220 C.2     1  UNL1        0.0000
     12  C          5.4540    0.2700    1.8610 C.2     1  UNL1        0.0000
@<TRIPOS>BOND
     1     5     4    1
     2     3     2    2
     3     4     2    1
     4     2     1    1
     5     1     6    1
     6     6     7    1
     7     7     8    2
     8     7     9    1
     9     8    10    1
    10     9    11    2
    11    10    12    2
    12    11    12    1
