@<TRIPOS>MOLECULE
/home/cewinharhar/GITHUB/reincatalyze/data/processed/docking_pred/2023-Apr-25-2248_maxeplen10_maxtrainstep1000_exh16_gamma099_lrac3e-4_lrcr1e-3/2b606219d5526e18d91eeb9dfd7a568ae4147191_ligand_2.pdbqt
 12 12 0 0 0
SMALL
GASTEIGER

@<TRIPOS>ATOM
      1  C          5.0140    1.8020    0.7080 C.3     1  UNL1        0.1270
      2  C          4.4710    1.1320    1.9040 C.2     1  UNL1        0.3030
      3  O          5.1440    0.2170    2.4510 O.2     1  UNL1       -0.2520
      4  O          3.2300    1.4790    2.4570 O.3     1  UNL1       -0.4810
      5  H          3.0780    1.3180    3.4430 H       1  UNL1        0.2960
      6  C          6.5280    1.9020    0.7440 C.3     1  UNL1        0.0470
      7  C          7.1410    1.0920   -0.3410 C.2     1  UNL1       -0.0470
      8  C          8.4870    1.2260   -0.6500 C.2     1  UNL1        0.0040
      9  C          6.4200    0.1850   -1.0960 C.2     1  UNL1        0.0040
     10  C          9.0810    0.4980   -1.6560 C.2     1  UNL1        0.0000
     11  C          7.0170   -0.5430   -2.1030 C.2     1  UNL1        0.0000
     12  C          8.3530   -0.4040   -2.4050 C.2     1  UNL1        0.0000
@<TRIPOS>BOND
     1    12    11    2
     2    12    10    1
     3    11     9    1
     4    10     8    2
     5     9     7    2
     6     8     7    1
     7     7     6    1
     8     1     6    1
     9     1     2    1
    10     2     3    2
    11     2     4    1
    12     4     5    1
