@<TRIPOS>MOLECULE
/home/cewinharhar/GITHUB/reincatalyze/data/processed/docking_pred/2023-Apr-25-2248_maxeplen10_maxtrainstep1000_exh16_gamma099_lrac3e-4_lrcr1e-3/2b606219d5526e18d91eeb9dfd7a568ae4147191_ligand_2.pdbqt
 12 12 0 0 0
SMALL
GASTEIGER

@<TRIPOS>ATOM
      1  C          8.4000   -0.7140   -2.0380 C.3     1  UNL1        0.1270
      2  C          8.3910   -1.9320   -2.8680 C.2     1  UNL1        0.3030
      3  O          7.2860   -2.4110   -3.2420 O.2     1  UNL1       -0.2520
      4  O          9.5720   -2.5790   -3.2590 O.3     1  UNL1       -0.4810
      5  H         10.2900   -2.0370   -3.7210 H       1  UNL1        0.2960
      6  C          7.0830    0.0380   -2.1100 C.3     1  UNL1        0.0470
      7  C          6.4740    0.1750   -0.7610 C.2     1  UNL1       -0.0470
      8  C          5.7510    1.3100   -0.4230 C.2     1  UNL1        0.0040
      9  C          6.5980   -0.7930    0.2180 C.2     1  UNL1        0.0040
     10  C          5.1840    1.4720    0.8200 C.2     1  UNL1        0.0000
     11  C          6.0290   -0.6300    1.4630 C.2     1  UNL1        0.0000
     12  C          5.3140    0.5000    1.7910 C.2     1  UNL1        0.0000
@<TRIPOS>BOND
     1     5     4    1
     2     4     2    1
     3     3     2    2
     4     2     1    1
     5     6     1    1
     6     6     7    1
     7     7     8    2
     8     7     9    1
     9     8    10    1
    10     9    11    2
    11    10    12    2
    12    11    12    1
