@<TRIPOS>MOLECULE
/home/cewinharhar/GITHUB/reincatalyze/data/processed/docking_pred/2023-Apr-25-2248_maxeplen10_maxtrainstep1000_exh16_gamma099_lrac3e-4_lrcr1e-3/2b606219d5526e18d91eeb9dfd7a568ae4147191_ligand_2.pdbqt
 12 12 0 0 0
SMALL
GASTEIGER

@<TRIPOS>ATOM
      1  C          8.4070   -0.6350   -2.1560 C.3     1  UNL1        0.1270
      2  C          8.4390   -1.8980   -2.9150 C.2     1  UNL1        0.3030
      3  O          9.5440   -2.4810   -3.0880 O.2     1  UNL1       -0.2520
      4  O          7.2800   -2.4760   -3.4530 O.3     1  UNL1       -0.4810
      5  H          6.3810   -2.1030   -3.1780 H       1  UNL1        0.2960
      6  C          7.0290    0.0010   -2.1570 C.3     1  UNL1        0.0470
      7  C          6.4870    0.1000   -0.7770 C.2     1  UNL1       -0.0470
      8  C          6.6090   -0.9610    0.1100 C.2     1  UNL1        0.0040
      9  C          5.8350    1.2260   -0.3080 C.2     1  UNL1        0.0040
     10  C          6.1090   -0.9040    1.3900 C.2     1  UNL1        0.0000
     11  C          5.3340    1.2810    0.9750 C.2     1  UNL1        0.0000
     12  C          5.4580    0.2240    1.8480 C.2     1  UNL1        0.0000
@<TRIPOS>BOND
     1     4     5    1
     2     4     2    1
     3     3     2    2
     4     2     1    1
     5     6     1    1
     6     6     7    1
     7     7     9    2
     8     7     8    1
     9     9    11    1
    10     8    10    2
    11    11    12    2
    12    10    12    1
