MODEL 1
REMARK VINA RESULT:      -7.3      0.000      0.000
REMARK SMILES O=C(O)CCc1ccccc1
REMARK SMILES IDX 4 1 2 2 1 3 3 4 5 6 6 7 7 8 11 9 8 10 10 11 9 12
REMARK H PARENT 3 5
REMARK Flexibility Score: inf
ROOT
ATOM      1  C   UNL     1       8.407  -0.635  -2.156  1.00  0.00     0.127 C 
ENDROOT
BRANCH   1   2
ATOM      2  C   UNL     1       8.439  -1.898  -2.915  1.00  0.00     0.303 C 
ATOM      3  O   UNL     1       9.544  -2.481  -3.088  1.00  0.00    -0.252 OA
BRANCH   2   4
ATOM      4  O   UNL     1       7.280  -2.476  -3.453  1.00  0.00    -0.481 OA
ATOM      5  H   UNL     1       6.381  -2.103  -3.178  1.00  0.00     0.296 HD
ENDBRANCH   2   4
ENDBRANCH   1   2
BRANCH   1   6
ATOM      6  C   UNL     1       7.029   0.001  -2.157  1.00  0.00     0.047 C 
BRANCH   6   7
ATOM      7  C   UNL     1       6.487   0.100  -0.777  1.00  0.00    -0.047 A 
ATOM      8  C   UNL     1       6.609  -0.961   0.110  1.00  0.00     0.004 A 
ATOM      9  C   UNL     1       5.835   1.226  -0.308  1.00  0.00     0.004 A 
ATOM     10  C   UNL     1       6.109  -0.904   1.390  1.00  0.00     0.000 A 
ATOM     11  C   UNL     1       5.334   1.281   0.975  1.00  0.00     0.000 A 
ATOM     12  C   UNL     1       5.458   0.224   1.848  1.00  0.00     0.000 A 
ENDBRANCH   6   7
ENDBRANCH   1   6
TORSDOF 4
ENDMDL
MODEL 2
REMARK VINA RESULT:      -7.3      0.206      1.729
REMARK SMILES O=C(O)CCc1ccccc1
REMARK SMILES IDX 4 1 2 2 1 3 3 4 5 6 6 7 7 8 11 9 8 10 10 11 9 12
REMARK H PARENT 3 5
REMARK Flexibility Score: inf
ROOT
ATOM      1  C   UNL     1       8.400  -0.714  -2.038  1.00  0.00     0.127 C 
ENDROOT
BRANCH   1   2
ATOM      2  C   UNL     1       8.391  -1.932  -2.868  1.00  0.00     0.303 C 
ATOM      3  O   UNL     1       7.286  -2.411  -3.242  1.00  0.00    -0.252 OA
BRANCH   2   4
ATOM      4  O   UNL     1       9.572  -2.579  -3.259  1.00  0.00    -0.481 OA
ATOM      5  H   UNL     1      10.290  -2.037  -3.721  1.00  0.00     0.296 HD
ENDBRANCH   2   4
ENDBRANCH   1   2
BRANCH   1   6
ATOM      6  C   UNL     1       7.083   0.038  -2.110  1.00  0.00     0.047 C 
BRANCH   6   7
ATOM      7  C   UNL     1       6.474   0.175  -0.761  1.00  0.00    -0.047 A 
ATOM      8  C   UNL     1       5.751   1.310  -0.423  1.00  0.00     0.004 A 
ATOM      9  C   UNL     1       6.598  -0.793   0.218  1.00  0.00     0.004 A 
ATOM     10  C   UNL     1       5.184   1.472   0.820  1.00  0.00     0.000 A 
ATOM     11  C   UNL     1       6.029  -0.630   1.463  1.00  0.00     0.000 A 
ATOM     12  C   UNL     1       5.314   0.500   1.791  1.00  0.00     0.000 A 
ENDBRANCH   6   7
ENDBRANCH   1   6
TORSDOF 4
ENDMDL
MODEL 3
REMARK VINA RESULT:      -6.8      3.398      5.094
REMARK SMILES O=C(O)CCc1ccccc1
REMARK SMILES IDX 4 1 2 2 1 3 3 4 5 6 6 7 7 8 11 9 8 10 10 11 9 12
REMARK H PARENT 3 5
REMARK Flexibility Score: inf
ROOT
ATOM      1  C   UNL     1       5.014   1.802   0.708  1.00  0.00     0.127 C 
ENDROOT
BRANCH   1   2
ATOM      2  C   UNL     1       4.471   1.132   1.904  1.00  0.00     0.303 C 
ATOM      3  O   UNL     1       5.144   0.217   2.451  1.00  0.00    -0.252 OA
BRANCH   2   4
ATOM      4  O   UNL     1       3.230   1.479   2.457  1.00  0.00    -0.481 OA
ATOM      5  H   UNL     1       3.078   1.318   3.443  1.00  0.00     0.296 HD
ENDBRANCH   2   4
ENDBRANCH   1   2
BRANCH   1   6
ATOM      6  C   UNL     1       6.528   1.902   0.744  1.00  0.00     0.047 C 
BRANCH   6   7
ATOM      7  C   UNL     1       7.141   1.092  -0.341  1.00  0.00    -0.047 A 
ATOM      8  C   UNL     1       8.487   1.226  -0.650  1.00  0.00     0.004 A 
ATOM      9  C   UNL     1       6.420   0.185  -1.096  1.00  0.00     0.004 A 
ATOM     10  C   UNL     1       9.081   0.498  -1.656  1.00  0.00     0.000 A 
ATOM     11  C   UNL     1       7.017  -0.543  -2.103  1.00  0.00     0.000 A 
ATOM     12  C   UNL     1       8.353  -0.404  -2.405  1.00  0.00     0.000 A 
ENDBRANCH   6   7
ENDBRANCH   1   6
TORSDOF 4
ENDMDL
MODEL 4
REMARK VINA RESULT:      -6.6      1.980      2.924
REMARK SMILES O=C(O)CCc1ccccc1
REMARK SMILES IDX 4 1 2 2 1 3 3 4 5 6 6 7 7 8 11 9 8 10 10 11 9 12
REMARK H PARENT 3 5
REMARK Flexibility Score: inf
ROOT
ATOM      1  C   UNL     1       8.323  -1.729   1.150  1.00  0.00     0.127 C 
ENDROOT
BRANCH   1   2
ATOM      2  C   UNL     1       8.704  -2.977   0.465  1.00  0.00     0.303 C 
ATOM      3  O   UNL     1       9.440  -3.805   1.067  1.00  0.00    -0.252 OA
BRANCH   2   4
ATOM      4  O   UNL     1       8.275  -3.277  -0.835  1.00  0.00    -0.481 OA
ATOM      5  H   UNL     1       8.817  -2.931  -1.615  1.00  0.00     0.296 HD
ENDBRANCH   2   4
ENDBRANCH   1   2
BRANCH   1   6
ATOM      6  C   UNL     1       6.830  -1.653   1.415  1.00  0.00     0.047 C 
BRANCH   6   7
ATOM      7  C   UNL     1       6.258  -0.389   0.882  1.00  0.00    -0.047 A 
ATOM      8  C   UNL     1       6.502   0.002  -0.427  1.00  0.00     0.004 A 
ATOM      9  C   UNL     1       5.475   0.459   1.644  1.00  0.00     0.004 A 
ATOM     10  C   UNL     1       5.996   1.171  -0.947  1.00  0.00     0.000 A 
ATOM     11  C   UNL     1       4.969   1.629   1.122  1.00  0.00     0.000 A 
ATOM     12  C   UNL     1       5.216   2.011  -0.178  1.00  0.00     0.000 A 
ENDBRANCH   6   7
ENDBRANCH   1   6
TORSDOF 4
ENDMDL
MODEL 5
REMARK VINA RESULT:      -6.6      2.055      2.737
REMARK SMILES O=C(O)CCc1ccccc1
REMARK SMILES IDX 4 1 2 2 1 3 3 4 5 6 6 7 7 8 11 9 8 10 10 11 9 12
REMARK H PARENT 3 5
REMARK Flexibility Score: inf
ROOT
ATOM      1  C   UNL     1       8.459   0.633  -1.699  1.00  0.00     0.127 C 
ENDROOT
BRANCH   1   2
ATOM      2  C   UNL     1       9.619   0.286  -0.858  1.00  0.00     0.303 C 
ATOM      3  O   UNL     1       9.463  -0.523   0.096  1.00  0.00    -0.252 OA
BRANCH   2   4
ATOM      4  O   UNL     1      10.894   0.825  -1.084  1.00  0.00    -0.481 OA
ATOM      5  H   UNL     1      11.292   1.436  -0.383  1.00  0.00     0.296 HD
ENDBRANCH   2   4
ENDBRANCH   1   2
BRANCH   1   6
ATOM      6  C   UNL     1       7.274  -0.281  -1.447  1.00  0.00     0.047 C 
BRANCH   6   7
ATOM      7  C   UNL     1       6.398   0.265  -0.377  1.00  0.00    -0.047 A 
ATOM      8  C   UNL     1       5.769   1.492  -0.535  1.00  0.00     0.004 A 
ATOM      9  C   UNL     1       6.172  -0.397   0.815  1.00  0.00     0.004 A 
ATOM     10  C   UNL     1       4.961   2.030   0.440  1.00  0.00     0.000 A 
ATOM     11  C   UNL     1       5.362   0.143   1.791  1.00  0.00     0.000 A 
ATOM     12  C   UNL     1       4.742   1.361   1.628  1.00  0.00     0.000 A 
ENDBRANCH   6   7
ENDBRANCH   1   6
TORSDOF 4
ENDMDL
