@<TRIPOS>MOLECULE
/home/cewinharhar/GITHUB/reincatalyze/data/processed/docking_pred/2023-Apr-25-2248_maxeplen10_maxtrainstep1000_exh16_gamma099_lrac3e-4_lrcr1e-3/2b606219d5526e18d91eeb9dfd7a568ae4147191_ligand_2.pdbqt
 12 12 0 0 0
SMALL
GASTEIGER

@<TRIPOS>ATOM
      1  C          8.3230   -1.7290    1.1500 C.3     1  UNL1        0.1270
      2  C          8.7040   -2.9770    0.4650 C.2     1  UNL1        0.3030
      3  O          9.4400   -3.8050    1.0670 O.2     1  UNL1       -0.2520
      4  O          8.2750   -3.2770   -0.8350 O.3     1  UNL1       -0.4810
      5  H          8.8170   -2.9310   -1.6150 H       1  UNL1        0.2960
      6  C          6.8300   -1.6530    1.4150 C.3     1  UNL1        0.0470
      7  C          6.2580   -0.3890    0.8820 C.2     1  UNL1       -0.0470
      8  C          6.5020    0.0020   -0.4270 C.2     1  UNL1        0.0040
      9  C          5.4750    0.4590    1.6440 C.2     1  UNL1        0.0040
     10  C          5.9960    1.1710   -0.9470 C.2     1  UNL1        0.0000
     11  C          4.9690    1.6290    1.1220 C.2     1  UNL1        0.0000
     12  C          5.2160    2.0110   -0.1780 C.2     1  UNL1        0.0000
@<TRIPOS>BOND
     1     5     4    1
     2    10     8    1
     3    10    12    2
     4     4     2    1
     5     8     7    2
     6    12    11    1
     7     2     3    2
     8     2     1    1
     9     7     6    1
    10     7     9    1
    11    11     9    2
    12     1     6    1
