@<TRIPOS>MOLECULE
/home/cewinharhar/GITHUB/reincatalyze/data/processed/docking_pred/2023-Apr-25-2248_maxeplen10_maxtrainstep1000_exh16_gamma099_lrac3e-4_lrcr1e-3/2b606219d5526e18d91eeb9dfd7a568ae4147191_ligand_2.pdbqt
 12 12 0 0 0
SMALL
GASTEIGER

@<TRIPOS>ATOM
      1  C          8.4590    0.6330   -1.6990 C.3     1  UNL1        0.1270
      2  C          9.6190    0.2860   -0.8580 C.2     1  UNL1        0.3030
      3  O          9.4630   -0.5230    0.0960 O.2     1  UNL1       -0.2520
      4  O         10.8940    0.8250   -1.0840 O.3     1  UNL1       -0.4810
      5  H         11.2920    1.4360   -0.3830 H       1  UNL1        0.2960
      6  C          7.2740   -0.2810   -1.4470 C.3     1  UNL1        0.0470
      7  C          6.3980    0.2650   -0.3770 C.2     1  UNL1       -0.0470
      8  C          5.7690    1.4920   -0.5350 C.2     1  UNL1        0.0040
      9  C          6.1720   -0.3970    0.8150 C.2     1  UNL1        0.0040
     10  C          4.9610    2.0300    0.4400 C.2     1  UNL1        0.0000
     11  C          5.3620    0.1430    1.7910 C.2     1  UNL1        0.0000
     12  C          4.7420    1.3610    1.6280 C.2     1  UNL1        0.0000
@<TRIPOS>BOND
     1     1     6    1
     2     1     2    1
     3     6     7    1
     4     4     2    1
     5     4     5    1
     6     2     3    2
     7     8     7    2
     8     8    10    1
     9     7     9    1
    10    10    12    2
    11     9    11    2
    12    12    11    1
