@<TRIPOS>MOLECULE
/home/cewinharhar/GITHUB/reincatalyze/data/processed/docking_pred/2023-Apr-25-2248_maxeplen10_maxtrainstep1000_exh16_gamma099_lrac3e-4_lrcr1e-3/2b611616233e02901686b2fc0a6dd8ec9c570ff2_ligand_2.pdbqt
 12 12 0 0 0
SMALL
GASTEIGER

@<TRIPOS>ATOM
      1  C          8.1360   -0.7900   -2.0580 C.3     1  UNL1        0.1270
      2  C          8.3070   -1.9690   -2.9250 C.2     1  UNL1        0.3030
      3  O          9.4580   -2.4670   -3.0620 O.2     1  UNL1       -0.2520
      4  O          7.2320   -2.5600   -3.6040 O.3     1  UNL1       -0.4810
      5  H          6.4390   -2.8830   -3.0670 H       1  UNL1        0.2960
      6  C          7.7280   -1.1710   -0.6460 C.3     1  UNL1        0.0470
      7  C          6.7550   -0.1930   -0.0920 C.2     1  UNL1       -0.0470
      8  C          6.2530   -0.3460    1.1930 C.2     1  UNL1        0.0040
      9  C          6.2940    0.8950   -0.8100 C.2     1  UNL1        0.0040
     10  C          5.3430    0.5360    1.7310 C.2     1  UNL1        0.0000
     11  C          5.3830    1.7760   -0.2700 C.2     1  UNL1        0.0000
     12  C          4.8890    1.6180    1.0050 C.2     1  UNL1        0.0000
@<TRIPOS>BOND
     1     4     5    1
     2     4     2    1
     3     3     2    2
     4     2     1    1
     5     1     6    1
     6     9    11    1
     7     9     7    2
     8     6     7    1
     9    11    12    2
    10     7     8    1
    11    12    10    1
    12     8    10    2
