@<TRIPOS>MOLECULE
/home/cewinharhar/GITHUB/reincatalyze/data/processed/docking_pred/2023-Apr-25-2248_maxeplen10_maxtrainstep1000_exh16_gamma099_lrac3e-4_lrcr1e-3/2b611616233e02901686b2fc0a6dd8ec9c570ff2_ligand_2.pdbqt
 12 12 0 0 0
SMALL
GASTEIGER

@<TRIPOS>ATOM
      1  C          5.4690    2.9090    0.0460 C.3     1  UNL1        0.1270
      2  C          6.2550    3.8650    0.8450 C.2     1  UNL1        0.3030
      3  O          6.8980    4.7750    0.2540 O.2     1  UNL1       -0.2520
      4  O          6.3130    3.8010    2.2450 O.3     1  UNL1       -0.4810
      5  H          5.4480    3.8360    2.7670 H       1  UNL1        0.2960
      6  C          4.8270    1.8350    0.9050 C.3     1  UNL1        0.0470
      7  C          5.6560    0.6020    0.9240 C.2     1  UNL1       -0.0470
      8  C          6.3650    0.2080   -0.2020 C.2     1  UNL1        0.0040
      9  C          5.7610   -0.2130    2.0360 C.2     1  UNL1        0.0040
     10  C          7.1330   -0.9330   -0.2200 C.2     1  UNL1        0.0000
     11  C          6.5310   -1.3560    2.0170 C.2     1  UNL1        0.0000
     12  C          7.2300   -1.7410    0.8950 C.2     1  UNL1        0.0000
@<TRIPOS>BOND
     1    10     8    1
     2    10    12    2
     3     8     7    2
     4     1     2    1
     5     1     6    1
     6     3     2    2
     7     2     4    1
     8    12    11    1
     9     6     7    1
    10     7     9    1
    11    11     9    2
    12     4     5    1
