MODEL 1
REMARK VINA RESULT:      -7.3      0.000      0.000
REMARK SMILES O=C(O)CCc1ccccc1
REMARK SMILES IDX 4 1 2 2 1 3 3 4 5 6 6 7 7 8 11 9 8 10 10 11 9 12
REMARK H PARENT 3 5
REMARK Flexibility Score: inf
ROOT
ATOM      1  C   UNL     1       8.409  -0.680  -2.096  1.00  0.00     0.127 C 
ENDROOT
BRANCH   1   2
ATOM      2  C   UNL     1       8.402  -1.926  -2.883  1.00  0.00     0.303 C 
ATOM      3  O   UNL     1       7.297  -2.419  -3.239  1.00  0.00    -0.252 OA
BRANCH   2   4
ATOM      4  O   UNL     1       9.584  -2.584  -3.253  1.00  0.00    -0.481 OA
ATOM      5  H   UNL     1       9.771  -2.725  -4.236  1.00  0.00     0.296 HD
ENDBRANCH   2   4
ENDBRANCH   1   2
BRANCH   1   6
ATOM      6  C   UNL     1       7.061   0.019  -2.115  1.00  0.00     0.047 C 
BRANCH   6   7
ATOM      7  C   UNL     1       6.483   0.098  -0.747  1.00  0.00    -0.047 A 
ATOM      8  C   UNL     1       5.802   1.233  -0.331  1.00  0.00     0.004 A 
ATOM      9  C   UNL     1       6.597  -0.928   0.173  1.00  0.00     0.004 A 
ATOM     10  C   UNL     1       5.266   1.341   0.931  1.00  0.00     0.000 A 
ATOM     11  C   UNL     1       6.058  -0.818   1.438  1.00  0.00     0.000 A 
ATOM     12  C   UNL     1       5.385   0.312   1.843  1.00  0.00     0.000 A 
ENDBRANCH   6   7
ENDBRANCH   1   6
TORSDOF 4
ENDMDL
MODEL 2
REMARK VINA RESULT:      -7.2      0.044      1.421
REMARK SMILES O=C(O)CCc1ccccc1
REMARK SMILES IDX 4 1 2 2 1 3 3 4 5 6 6 7 7 8 11 9 8 10 10 11 9 12
REMARK H PARENT 3 5
REMARK Flexibility Score: inf
ROOT
ATOM      1  C   UNL     1       8.407  -0.660  -2.122  1.00  0.00     0.127 C 
ENDROOT
BRANCH   1   2
ATOM      2  C   UNL     1       8.403  -1.916  -2.892  1.00  0.00     0.303 C 
ATOM      3  O   UNL     1       7.300  -2.422  -3.234  1.00  0.00    -0.252 OA
BRANCH   2   4
ATOM      4  O   UNL     1       9.587  -2.571  -3.261  1.00  0.00    -0.481 OA
ATOM      5  H   UNL     1       9.677  -3.558  -3.059  1.00  0.00     0.296 HD
ENDBRANCH   2   4
ENDBRANCH   1   2
BRANCH   1   6
ATOM      6  C   UNL     1       7.052   0.026  -2.137  1.00  0.00     0.047 C 
BRANCH   6   7
ATOM      7  C   UNL     1       6.490   0.124  -0.765  1.00  0.00    -0.047 A 
ATOM      8  C   UNL     1       6.627  -0.925   0.133  1.00  0.00     0.004 A 
ATOM      9  C   UNL     1       5.803   1.237  -0.315  1.00  0.00     0.004 A 
ATOM     10  C   UNL     1       6.109  -0.869   1.406  1.00  0.00     0.000 A 
ATOM     11  C   UNL     1       5.285   1.292   0.961  1.00  0.00     0.000 A 
ATOM     12  C   UNL     1       5.424   0.246   1.845  1.00  0.00     0.000 A 
ENDBRANCH   6   7
ENDBRANCH   1   6
TORSDOF 4
ENDMDL
MODEL 3
REMARK VINA RESULT:      -7.0      0.646      1.871
REMARK SMILES O=C(O)CCc1ccccc1
REMARK SMILES IDX 4 1 2 2 1 3 3 4 5 6 6 7 7 8 11 9 8 10 10 11 9 12
REMARK H PARENT 3 5
REMARK Flexibility Score: inf
ROOT
ATOM      1  C   UNL     1       8.136  -0.790  -2.058  1.00  0.00     0.127 C 
ENDROOT
BRANCH   1   2
ATOM      2  C   UNL     1       8.307  -1.969  -2.925  1.00  0.00     0.303 C 
ATOM      3  O   UNL     1       9.458  -2.467  -3.062  1.00  0.00    -0.252 OA
BRANCH   2   4
ATOM      4  O   UNL     1       7.232  -2.560  -3.604  1.00  0.00    -0.481 OA
ATOM      5  H   UNL     1       6.439  -2.883  -3.067  1.00  0.00     0.296 HD
ENDBRANCH   2   4
ENDBRANCH   1   2
BRANCH   1   6
ATOM      6  C   UNL     1       7.728  -1.171  -0.646  1.00  0.00     0.047 C 
BRANCH   6   7
ATOM      7  C   UNL     1       6.755  -0.193  -0.092  1.00  0.00    -0.047 A 
ATOM      8  C   UNL     1       6.253  -0.346   1.193  1.00  0.00     0.004 A 
ATOM      9  C   UNL     1       6.294   0.895  -0.810  1.00  0.00     0.004 A 
ATOM     10  C   UNL     1       5.343   0.536   1.731  1.00  0.00     0.000 A 
ATOM     11  C   UNL     1       5.383   1.776  -0.270  1.00  0.00     0.000 A 
ATOM     12  C   UNL     1       4.889   1.618   1.005  1.00  0.00     0.000 A 
ENDBRANCH   6   7
ENDBRANCH   1   6
TORSDOF 4
ENDMDL
MODEL 4
REMARK VINA RESULT:      -6.8      3.323      5.169
REMARK SMILES O=C(O)CCc1ccccc1
REMARK SMILES IDX 4 1 2 2 1 3 3 4 5 6 6 7 7 8 11 9 8 10 10 11 9 12
REMARK H PARENT 3 5
REMARK Flexibility Score: inf
ROOT
ATOM      1  C   UNL     1       5.003   1.788   0.706  1.00  0.00     0.127 C 
ENDROOT
BRANCH   1   2
ATOM      2  C   UNL     1       4.481   1.123   1.913  1.00  0.00     0.303 C 
ATOM      3  O   UNL     1       5.173   0.224   2.464  1.00  0.00    -0.252 OA
BRANCH   2   4
ATOM      4  O   UNL     1       3.240   1.458   2.474  1.00  0.00    -0.481 OA
ATOM      5  H   UNL     1       2.411   1.001   2.120  1.00  0.00     0.296 HD
ENDBRANCH   2   4
ENDBRANCH   1   2
BRANCH   1   6
ATOM      6  C   UNL     1       6.513   1.937   0.740  1.00  0.00     0.047 C 
BRANCH   6   7
ATOM      7  C   UNL     1       7.151   1.143  -0.343  1.00  0.00    -0.047 A 
ATOM      8  C   UNL     1       6.400   0.270  -1.117  1.00  0.00     0.004 A 
ATOM      9  C   UNL     1       8.502   1.218  -0.628  1.00  0.00     0.004 A 
ATOM     10  C   UNL     1       6.963  -0.486  -2.119  1.00  0.00     0.000 A 
ATOM     11  C   UNL     1       9.065   0.459  -1.633  1.00  0.00     0.000 A 
ATOM     12  C   UNL     1       8.313  -0.405  -2.396  1.00  0.00     0.000 A 
ENDBRANCH   6   7
ENDBRANCH   1   6
TORSDOF 4
ENDMDL
MODEL 5
REMARK VINA RESULT:      -6.7      3.822      4.959
REMARK SMILES O=C(O)CCc1ccccc1
REMARK SMILES IDX 4 1 2 2 1 3 3 4 5 6 6 7 7 8 11 9 8 10 10 11 9 12
REMARK H PARENT 3 5
REMARK Flexibility Score: inf
ROOT
ATOM      1  C   UNL     1       5.469   2.909   0.046  1.00  0.00     0.127 C 
ENDROOT
BRANCH   1   2
ATOM      2  C   UNL     1       6.255   3.865   0.845  1.00  0.00     0.303 C 
ATOM      3  O   UNL     1       6.898   4.775   0.254  1.00  0.00    -0.252 OA
BRANCH   2   4
ATOM      4  O   UNL     1       6.313   3.801   2.245  1.00  0.00    -0.481 OA
ATOM      5  H   UNL     1       5.448   3.836   2.767  1.00  0.00     0.296 HD
ENDBRANCH   2   4
ENDBRANCH   1   2
BRANCH   1   6
ATOM      6  C   UNL     1       4.827   1.835   0.905  1.00  0.00     0.047 C 
BRANCH   6   7
ATOM      7  C   UNL     1       5.656   0.602   0.924  1.00  0.00    -0.047 A 
ATOM      8  C   UNL     1       6.365   0.208  -0.202  1.00  0.00     0.004 A 
ATOM      9  C   UNL     1       5.761  -0.213   2.036  1.00  0.00     0.004 A 
ATOM     10  C   UNL     1       7.133  -0.933  -0.220  1.00  0.00     0.000 A 
ATOM     11  C   UNL     1       6.531  -1.356   2.017  1.00  0.00     0.000 A 
ATOM     12  C   UNL     1       7.230  -1.741   0.895  1.00  0.00     0.000 A 
ENDBRANCH   6   7
ENDBRANCH   1   6
TORSDOF 4
ENDMDL
