@<TRIPOS>MOLECULE
/home/cewinharhar/GITHUB/reincatalyze/data/processed/docking_pred/2023-Apr-25-2248_maxeplen10_maxtrainstep1000_exh16_gamma099_lrac3e-4_lrcr1e-3/2b611616233e02901686b2fc0a6dd8ec9c570ff2_ligand_2.pdbqt
 12 12 0 0 0
SMALL
GASTEIGER

@<TRIPOS>ATOM
      1  C          5.0030    1.7880    0.7060 C.3     1  UNL1        0.1270
      2  C          4.4810    1.1230    1.9130 C.2     1  UNL1        0.3030
      3  O          5.1730    0.2240    2.4640 O.2     1  UNL1       -0.2520
      4  O          3.2400    1.4580    2.4740 O.3     1  UNL1       -0.4810
      5  H          2.4110    1.0010    2.1200 H       1  UNL1        0.2960
      6  C          6.5130    1.9370    0.7400 C.3     1  UNL1        0.0470
      7  C          7.1510    1.1430   -0.3430 C.2     1  UNL1       -0.0470
      8  C          6.4000    0.2700   -1.1170 C.2     1  UNL1        0.0040
      9  C          8.5020    1.2180   -0.6280 C.2     1  UNL1        0.0040
     10  C          6.9630   -0.4860   -2.1190 C.2     1  UNL1        0.0000
     11  C          9.0650    0.4590   -1.6330 C.2     1  UNL1        0.0000
     12  C          8.3130   -0.4050   -2.3960 C.2     1  UNL1        0.0000
@<TRIPOS>BOND
     1    12    10    2
     2    12    11    1
     3    10     8    1
     4    11     9    2
     5     8     7    2
     6     9     7    1
     7     7     6    1
     8     1     6    1
     9     1     2    1
    10     2     3    2
    11     2     4    1
    12     5     4    1
