@<TRIPOS>MOLECULE
/home/cewinharhar/GITHUB/reincatalyze/data/processed/docking_pred/2023-Apr-25-2248_maxeplen10_maxtrainstep1000_exh16_gamma099_lrac3e-4_lrcr1e-3/2b611616233e02901686b2fc0a6dd8ec9c570ff2_ligand_2.pdbqt
 12 12 0 0 0
SMALL
GASTEIGER

@<TRIPOS>ATOM
      1  C          8.4090   -0.6800   -2.0960 C.3     1  UNL1        0.1270
      2  C          8.4020   -1.9260   -2.8830 C.2     1  UNL1        0.3030
      3  O          7.2970   -2.4190   -3.2390 O.2     1  UNL1       -0.2520
      4  O          9.5840   -2.5840   -3.2530 O.3     1  UNL1       -0.4810
      5  H          9.7710   -2.7250   -4.2360 H       1  UNL1        0.2960
      6  C          7.0610    0.0190   -2.1150 C.3     1  UNL1        0.0470
      7  C          6.4830    0.0980   -0.7470 C.2     1  UNL1       -0.0470
      8  C          5.8020    1.2330   -0.3310 C.2     1  UNL1        0.0040
      9  C          6.5970   -0.9280    0.1730 C.2     1  UNL1        0.0040
     10  C          5.2660    1.3410    0.9310 C.2     1  UNL1        0.0000
     11  C          6.0580   -0.8180    1.4380 C.2     1  UNL1        0.0000
     12  C          5.3850    0.3120    1.8430 C.2     1  UNL1        0.0000
@<TRIPOS>BOND
     1     5     4    1
     2     4     2    1
     3     3     2    2
     4     2     1    1
     5     6     1    1
     6     6     7    1
     7     7     8    2
     8     7     9    1
     9     8    10    1
    10     9    11    2
    11    10    12    2
    12    11    12    1
