@<TRIPOS>MOLECULE
/home/cewinharhar/GITHUB/reincatalyze/data/processed/docking_pred/2023-Apr-25-2248_maxeplen10_maxtrainstep1000_exh16_gamma099_lrac3e-4_lrcr1e-3/2b611616233e02901686b2fc0a6dd8ec9c570ff2_ligand_2.pdbqt
 12 12 0 0 0
SMALL
GASTEIGER

@<TRIPOS>ATOM
      1  C          8.4070   -0.6600   -2.1220 C.3     1  UNL1        0.1270
      2  C          8.4030   -1.9160   -2.8920 C.2     1  UNL1        0.3030
      3  O          7.3000   -2.4220   -3.2340 O.2     1  UNL1       -0.2520
      4  O          9.5870   -2.5710   -3.2610 O.3     1  UNL1       -0.4810
      5  H          9.6770   -3.5580   -3.0590 H       1  UNL1        0.2960
      6  C          7.0520    0.0260   -2.1370 C.3     1  UNL1        0.0470
      7  C          6.4900    0.1240   -0.7650 C.2     1  UNL1       -0.0470
      8  C          6.6270   -0.9250    0.1330 C.2     1  UNL1        0.0040
      9  C          5.8030    1.2370   -0.3150 C.2     1  UNL1        0.0040
     10  C          6.1090   -0.8690    1.4060 C.2     1  UNL1        0.0000
     11  C          5.2850    1.2920    0.9610 C.2     1  UNL1        0.0000
     12  C          5.4240    0.2460    1.8450 C.2     1  UNL1        0.0000
@<TRIPOS>BOND
     1     4     5    1
     2     4     2    1
     3     3     2    2
     4     2     1    1
     5     6     1    1
     6     6     7    1
     7     7     9    2
     8     7     8    1
     9     9    11    1
    10     8    10    2
    11    11    12    2
    12    10    12    1
