MODEL 1
REMARK VINA RESULT:      -7.4      0.000      0.000
REMARK SMILES O=C(O)CCc1ccccc1
REMARK SMILES IDX 4 1 2 2 1 3 3 4 5 6 6 7 7 8 11 9 8 10 10 11 9 12
REMARK H PARENT 3 5
REMARK Flexibility Score: inf
ROOT
ATOM      1  C   UNL     1       8.405  -0.756  -2.026  1.00  0.00     0.127 C 
ENDROOT
BRANCH   1   2
ATOM      2  C   UNL     1       8.440  -1.957  -2.880  1.00  0.00     0.303 C 
ATOM      3  O   UNL     1       9.549  -2.510  -3.112  1.00  0.00    -0.252 OA
BRANCH   2   4
ATOM      4  O   UNL     1       7.280  -2.507  -3.444  1.00  0.00    -0.481 OA
ATOM      5  H   UNL     1       6.396  -2.353  -2.979  1.00  0.00     0.296 HD
ENDBRANCH   2   4
ENDBRANCH   1   2
BRANCH   1   6
ATOM      6  C   UNL     1       7.063  -0.048  -2.086  1.00  0.00     0.047 C 
BRANCH   6   7
ATOM      7  C   UNL     1       6.479   0.103  -0.728  1.00  0.00    -0.047 A 
ATOM      8  C   UNL     1       6.577  -0.921   0.203  1.00  0.00     0.004 A 
ATOM      9  C   UNL     1       5.810   1.244  -0.324  1.00  0.00     0.004 A 
ATOM     10  C   UNL     1       6.037  -0.816   1.464  1.00  0.00     0.000 A 
ATOM     11  C   UNL     1       5.271   1.348   0.940  1.00  0.00     0.000 A 
ATOM     12  C   UNL     1       5.371   0.327   1.857  1.00  0.00     0.000 A 
ENDBRANCH   6   7
ENDBRANCH   1   6
TORSDOF 4
ENDMDL
MODEL 2
REMARK VINA RESULT:      -7.3      0.092      1.723
REMARK SMILES O=C(O)CCc1ccccc1
REMARK SMILES IDX 4 1 2 2 1 3 3 4 5 6 6 7 7 8 11 9 8 10 10 11 9 12
REMARK H PARENT 3 5
REMARK Flexibility Score: inf
ROOT
ATOM      1  C   UNL     1       8.412  -0.697  -2.077  1.00  0.00     0.127 C 
ENDROOT
BRANCH   1   2
ATOM      2  C   UNL     1       8.399  -1.933  -2.879  1.00  0.00     0.303 C 
ATOM      3  O   UNL     1       7.292  -2.416  -3.241  1.00  0.00    -0.252 OA
BRANCH   2   4
ATOM      4  O   UNL     1       9.578  -2.592  -3.256  1.00  0.00    -0.481 OA
ATOM      5  H   UNL     1       9.680  -2.889  -4.217  1.00  0.00     0.296 HD
ENDBRANCH   2   4
ENDBRANCH   1   2
BRANCH   1   6
ATOM      6  C   UNL     1       7.073   0.017  -2.101  1.00  0.00     0.047 C 
BRANCH   6   7
ATOM      7  C   UNL     1       6.488   0.101  -0.737  1.00  0.00    -0.047 A 
ATOM      8  C   UNL     1       5.808   1.239  -0.327  1.00  0.00     0.004 A 
ATOM      9  C   UNL     1       6.594  -0.923   0.186  1.00  0.00     0.004 A 
ATOM     10  C   UNL     1       5.265   1.351   0.932  1.00  0.00     0.000 A 
ATOM     11  C   UNL     1       6.049  -0.809   1.447  1.00  0.00     0.000 A 
ATOM     12  C   UNL     1       5.377   0.323   1.847  1.00  0.00     0.000 A 
ENDBRANCH   6   7
ENDBRANCH   1   6
TORSDOF 4
ENDMDL
MODEL 3
REMARK VINA RESULT:      -6.8      3.399      5.091
REMARK SMILES O=C(O)CCc1ccccc1
REMARK SMILES IDX 4 1 2 2 1 3 3 4 5 6 6 7 7 8 11 9 8 10 10 11 9 12
REMARK H PARENT 3 5
REMARK Flexibility Score: inf
ROOT
ATOM      1  C   UNL     1       4.999   1.787   0.706  1.00  0.00     0.127 C 
ENDROOT
BRANCH   1   2
ATOM      2  C   UNL     1       4.473   1.116   1.909  1.00  0.00     0.303 C 
ATOM      3  O   UNL     1       5.158   0.205   2.450  1.00  0.00    -0.252 OA
BRANCH   2   4
ATOM      4  O   UNL     1       3.237   1.456   2.475  1.00  0.00    -0.481 OA
ATOM      5  H   UNL     1       3.099   1.300   3.464  1.00  0.00     0.296 HD
ENDBRANCH   2   4
ENDBRANCH   1   2
BRANCH   1   6
ATOM      6  C   UNL     1       6.509   1.932   0.744  1.00  0.00     0.047 C 
BRANCH   6   7
ATOM      7  C   UNL     1       7.148   1.135  -0.336  1.00  0.00    -0.047 A 
ATOM      8  C   UNL     1       6.402   0.241  -1.092  1.00  0.00     0.004 A 
ATOM      9  C   UNL     1       8.494   1.227  -0.638  1.00  0.00     0.004 A 
ATOM     10  C   UNL     1       6.966  -0.519  -2.091  1.00  0.00     0.000 A 
ATOM     11  C   UNL     1       9.057   0.465  -1.639  1.00  0.00     0.000 A 
ATOM     12  C   UNL     1       8.311  -0.420  -2.384  1.00  0.00     0.000 A 
ENDBRANCH   6   7
ENDBRANCH   1   6
TORSDOF 4
ENDMDL
MODEL 4
REMARK VINA RESULT:      -6.6      1.914      2.835
REMARK SMILES O=C(O)CCc1ccccc1
REMARK SMILES IDX 4 1 2 2 1 3 3 4 5 6 6 7 7 8 11 9 8 10 10 11 9 12
REMARK H PARENT 3 5
REMARK Flexibility Score: inf
ROOT
ATOM      1  C   UNL     1       8.227  -1.704   1.147  1.00  0.00     0.127 C 
ENDROOT
BRANCH   1   2
ATOM      2  C   UNL     1       8.542  -2.899   0.345  1.00  0.00     0.303 C 
ATOM      3  O   UNL     1       9.205  -3.833   0.874  1.00  0.00    -0.252 OA
BRANCH   2   4
ATOM      4  O   UNL     1       8.130  -3.036  -0.988  1.00  0.00    -0.481 OA
ATOM      5  H   UNL     1       7.282  -3.552  -1.181  1.00  0.00     0.296 HD
ENDBRANCH   2   4
ENDBRANCH   1   2
BRANCH   1   6
ATOM      6  C   UNL     1       6.741  -1.580   1.432  1.00  0.00     0.047 C 
BRANCH   6   7
ATOM      7  C   UNL     1       6.195  -0.314   0.878  1.00  0.00    -0.047 A 
ATOM      8  C   UNL     1       6.460   0.057  -0.433  1.00  0.00     0.004 A 
ATOM      9  C   UNL     1       5.417   0.555   1.621  1.00  0.00     0.004 A 
ATOM     10  C   UNL     1       5.978   1.227  -0.973  1.00  0.00     0.000 A 
ATOM     11  C   UNL     1       4.936   1.727   1.079  1.00  0.00     0.000 A 
ATOM     12  C   UNL     1       5.204   2.089  -0.222  1.00  0.00     0.000 A 
ENDBRANCH   6   7
ENDBRANCH   1   6
TORSDOF 4
ENDMDL
MODEL 5
REMARK VINA RESULT:      -6.6      2.061      2.747
REMARK SMILES O=C(O)CCc1ccccc1
REMARK SMILES IDX 4 1 2 2 1 3 3 4 5 6 6 7 7 8 11 9 8 10 10 11 9 12
REMARK H PARENT 3 5
REMARK Flexibility Score: inf
ROOT
ATOM      1  C   UNL     1       8.512   0.643  -1.695  1.00  0.00     0.127 C 
ENDROOT
BRANCH   1   2
ATOM      2  C   UNL     1       9.660   0.282  -0.845  1.00  0.00     0.303 C 
ATOM      3  O   UNL     1       9.484  -0.515   0.116  1.00  0.00    -0.252 OA
BRANCH   2   4
ATOM      4  O   UNL     1      10.947   0.794  -1.068  1.00  0.00    -0.481 OA
ATOM      5  H   UNL     1      11.737   0.309  -0.665  1.00  0.00     0.296 HD
ENDBRANCH   2   4
ENDBRANCH   1   2
BRANCH   1   6
ATOM      6  C   UNL     1       7.319  -0.266  -1.464  1.00  0.00     0.047 C 
BRANCH   6   7
ATOM      7  C   UNL     1       6.429   0.282  -0.406  1.00  0.00    -0.047 A 
ATOM      8  C   UNL     1       5.798   1.505  -0.577  1.00  0.00     0.004 A 
ATOM      9  C   UNL     1       6.191  -0.376   0.787  1.00  0.00     0.004 A 
ATOM     10  C   UNL     1       4.977   2.044   0.387  1.00  0.00     0.000 A 
ATOM     11  C   UNL     1       5.369   0.165   1.751  1.00  0.00     0.000 A 
ATOM     12  C   UNL     1       4.747   1.380   1.575  1.00  0.00     0.000 A 
ENDBRANCH   6   7
ENDBRANCH   1   6
TORSDOF 4
ENDMDL
