@<TRIPOS>MOLECULE
/home/cewinharhar/GITHUB/reincatalyze/data/processed/docking_pred/2023-Apr-25-2248_maxeplen10_maxtrainstep1000_exh16_gamma099_lrac3e-4_lrcr1e-3/2bd7ebd6000506c3611824cd415c5dddcf27ad2f_ligand_2.pdbqt
 12 12 0 0 0
SMALL
GASTEIGER

@<TRIPOS>ATOM
      1  C          8.4050   -0.7560   -2.0260 C.3     1  UNL1        0.1270
      2  C          8.4400   -1.9570   -2.8800 C.2     1  UNL1        0.3030
      3  O          9.5490   -2.5100   -3.1120 O.2     1  UNL1       -0.2520
      4  O          7.2800   -2.5070   -3.4440 O.3     1  UNL1       -0.4810
      5  H          6.3960   -2.3530   -2.9790 H       1  UNL1        0.2960
      6  C          7.0630   -0.0480   -2.0860 C.3     1  UNL1        0.0470
      7  C          6.4790    0.1030   -0.7280 C.2     1  UNL1       -0.0470
      8  C          6.5770   -0.9210    0.2030 C.2     1  UNL1        0.0040
      9  C          5.8100    1.2440   -0.3240 C.2     1  UNL1        0.0040
     10  C          6.0370   -0.8160    1.4640 C.2     1  UNL1        0.0000
     11  C          5.2710    1.3480    0.9400 C.2     1  UNL1        0.0000
     12  C          5.3710    0.3270    1.8570 C.2     1  UNL1        0.0000
@<TRIPOS>BOND
     1     4     5    1
     2     4     2    1
     3     3     2    2
     4     2     1    1
     5     6     1    1
     6     6     7    1
     7     7     9    2
     8     7     8    1
     9     9    11    1
    10     8    10    2
    11    11    12    2
    12    10    12    1
