@<TRIPOS>MOLECULE
/home/cewinharhar/GITHUB/reincatalyze/data/processed/docking_pred/2023-Apr-25-2248_maxeplen10_maxtrainstep1000_exh16_gamma099_lrac3e-4_lrcr1e-3/2bd7ebd6000506c3611824cd415c5dddcf27ad2f_ligand_2.pdbqt
 12 12 0 0 0
SMALL
GASTEIGER

@<TRIPOS>ATOM
      1  C          4.9990    1.7870    0.7060 C.3     1  UNL1        0.1270
      2  C          4.4730    1.1160    1.9090 C.2     1  UNL1        0.3030
      3  O          5.1580    0.2050    2.4500 O.2     1  UNL1       -0.2520
      4  O          3.2370    1.4560    2.4750 O.3     1  UNL1       -0.4810
      5  H          3.0990    1.3000    3.4640 H       1  UNL1        0.2960
      6  C          6.5090    1.9320    0.7440 C.3     1  UNL1        0.0470
      7  C          7.1480    1.1350   -0.3360 C.2     1  UNL1       -0.0470
      8  C          6.4020    0.2410   -1.0920 C.2     1  UNL1        0.0040
      9  C          8.4940    1.2270   -0.6380 C.2     1  UNL1        0.0040
     10  C          6.9660   -0.5190   -2.0910 C.2     1  UNL1        0.0000
     11  C          9.0570    0.4650   -1.6390 C.2     1  UNL1        0.0000
     12  C          8.3110   -0.4200   -2.3840 C.2     1  UNL1        0.0000
@<TRIPOS>BOND
     1    12    10    2
     2    12    11    1
     3    10     8    1
     4    11     9    2
     5     8     7    2
     6     9     7    1
     7     7     6    1
     8     1     6    1
     9     1     2    1
    10     2     3    2
    11     2     4    1
    12     4     5    1
