@<TRIPOS>MOLECULE
/home/cewinharhar/GITHUB/reincatalyze/data/processed/docking_pred/2023-Apr-25-2248_maxeplen10_maxtrainstep1000_exh16_gamma099_lrac3e-4_lrcr1e-3/2bd7ebd6000506c3611824cd415c5dddcf27ad2f_ligand_2.pdbqt
 12 12 0 0 0
SMALL
GASTEIGER

@<TRIPOS>ATOM
      1  C          8.4120   -0.6970   -2.0770 C.3     1  UNL1        0.1270
      2  C          8.3990   -1.9330   -2.8790 C.2     1  UNL1        0.3030
      3  O          7.2920   -2.4160   -3.2410 O.2     1  UNL1       -0.2520
      4  O          9.5780   -2.5920   -3.2560 O.3     1  UNL1       -0.4810
      5  H          9.6800   -2.8890   -4.2170 H       1  UNL1        0.2960
      6  C          7.0730    0.0170   -2.1010 C.3     1  UNL1        0.0470
      7  C          6.4880    0.1010   -0.7370 C.2     1  UNL1       -0.0470
      8  C          5.8080    1.2390   -0.3270 C.2     1  UNL1        0.0040
      9  C          6.5940   -0.9230    0.1860 C.2     1  UNL1        0.0040
     10  C          5.2650    1.3510    0.9320 C.2     1  UNL1        0.0000
     11  C          6.0490   -0.8090    1.4470 C.2     1  UNL1        0.0000
     12  C          5.3770    0.3230    1.8470 C.2     1  UNL1        0.0000
@<TRIPOS>BOND
     1     5     4    1
     2     4     2    1
     3     3     2    2
     4     2     1    1
     5     6     1    1
     6     6     7    1
     7     7     8    2
     8     7     9    1
     9     8    10    1
    10     9    11    2
    11    10    12    2
    12    11    12    1
