@<TRIPOS>MOLECULE
/home/cewinharhar/GITHUB/reincatalyze/data/processed/docking_pred/2023-Apr-25-2248_maxeplen10_maxtrainstep1000_exh16_gamma099_lrac3e-4_lrcr1e-3/2bd7ebd6000506c3611824cd415c5dddcf27ad2f_ligand_2.pdbqt
 12 12 0 0 0
SMALL
GASTEIGER

@<TRIPOS>ATOM
      1  C          8.2270   -1.7040    1.1470 C.3     1  UNL1        0.1270
      2  C          8.5420   -2.8990    0.3450 C.2     1  UNL1        0.3030
      3  O          9.2050   -3.8330    0.8740 O.2     1  UNL1       -0.2520
      4  O          8.1300   -3.0360   -0.9880 O.3     1  UNL1       -0.4810
      5  H          7.2820   -3.5520   -1.1810 H       1  UNL1        0.2960
      6  C          6.7410   -1.5800    1.4320 C.3     1  UNL1        0.0470
      7  C          6.1950   -0.3140    0.8780 C.2     1  UNL1       -0.0470
      8  C          6.4600    0.0570   -0.4330 C.2     1  UNL1        0.0040
      9  C          5.4170    0.5550    1.6210 C.2     1  UNL1        0.0040
     10  C          5.9780    1.2270   -0.9730 C.2     1  UNL1        0.0000
     11  C          4.9360    1.7270    1.0790 C.2     1  UNL1        0.0000
     12  C          5.2040    2.0890   -0.2220 C.2     1  UNL1        0.0000
@<TRIPOS>BOND
     1     5     4    1
     2     4     2    1
     3    10     8    1
     4    10    12    2
     5     8     7    2
     6    12    11    1
     7     2     3    2
     8     2     1    1
     9     7     6    1
    10     7     9    1
    11    11     9    2
    12     1     6    1
