@<TRIPOS>MOLECULE
/home/cewinharhar/GITHUB/reincatalyze/data/processed/docking_pred/2023-Apr-25-2248_maxeplen10_maxtrainstep1000_exh16_gamma099_lrac3e-4_lrcr1e-3/2bd7ebd6000506c3611824cd415c5dddcf27ad2f_ligand_2.pdbqt
 12 12 0 0 0
SMALL
GASTEIGER

@<TRIPOS>ATOM
      1  C          8.5120    0.6430   -1.6950 C.3     1  UNL1        0.1270
      2  C          9.6600    0.2820   -0.8450 C.2     1  UNL1        0.3030
      3  O          9.4840   -0.5150    0.1160 O.2     1  UNL1       -0.2520
      4  O         10.9470    0.7940   -1.0680 O.3     1  UNL1       -0.4810
      5  H         11.7370    0.3090   -0.6650 H       1  UNL1        0.2960
      6  C          7.3190   -0.2660   -1.4640 C.3     1  UNL1        0.0470
      7  C          6.4290    0.2820   -0.4060 C.2     1  UNL1       -0.0470
      8  C          5.7980    1.5050   -0.5770 C.2     1  UNL1        0.0040
      9  C          6.1910   -0.3760    0.7870 C.2     1  UNL1        0.0040
     10  C          4.9770    2.0440    0.3870 C.2     1  UNL1        0.0000
     11  C          5.3690    0.1650    1.7510 C.2     1  UNL1        0.0000
     12  C          4.7470    1.3800    1.5750 C.2     1  UNL1        0.0000
@<TRIPOS>BOND
     1     1     6    1
     2     1     2    1
     3     6     7    1
     4     4     2    1
     5     4     5    1
     6     2     3    2
     7     8     7    2
     8     8    10    1
     9     7     9    1
    10    10    12    2
    11     9    11    2
    12    12    11    1
