@<TRIPOS>MOLECULE
/home/cewinharhar/GITHUB/reincatalyze/data/processed/docking_pred/2023-Apr-25-2248_maxeplen10_maxtrainstep1000_exh16_gamma099_lrac3e-4_lrcr1e-3/2cf69de7cf34ef354308742c6722c88054a527ce_ligand_2.pdbqt
 12 12 0 0 0
SMALL
GASTEIGER

@<TRIPOS>ATOM
      1  C          8.3930   -0.6660   -2.1080 C.3     1  UNL1        0.1270
      2  C          8.3990   -1.9190   -2.8840 C.2     1  UNL1        0.3030
      3  O          7.2990   -2.4230   -3.2400 O.2     1  UNL1       -0.2520
      4  O          9.5870   -2.5700   -3.2430 O.3     1  UNL1       -0.4810
      5  H         10.1150   -3.0450   -2.5230 H       1  UNL1        0.2960
      6  C          7.0360    0.0150   -2.1280 C.3     1  UNL1        0.0470
      7  C          6.4750    0.1250   -0.7560 C.2     1  UNL1       -0.0470
      8  C          6.6110   -0.9170    0.1500 C.2     1  UNL1        0.0040
      9  C          5.7910    1.2430   -0.3150 C.2     1  UNL1        0.0040
     10  C          6.0940   -0.8490    1.4240 C.2     1  UNL1        0.0000
     11  C          5.2740    1.3090    0.9610 C.2     1  UNL1        0.0000
     12  C          5.4120    0.2710    1.8540 C.2     1  UNL1        0.0000
@<TRIPOS>BOND
     1     4     2    1
     2     4     5    1
     3     3     2    2
     4     2     1    1
     5     6     1    1
     6     6     7    1
     7     7     9    2
     8     7     8    1
     9     9    11    1
    10     8    10    2
    11    11    12    2
    12    10    12    1
