MODEL 1
REMARK VINA RESULT:      -7.3      0.000      0.000
REMARK SMILES O=C(O)CCc1ccccc1
REMARK SMILES IDX 4 1 2 2 1 3 3 4 5 6 6 7 7 8 11 9 8 10 10 11 9 12
REMARK H PARENT 3 5
REMARK Flexibility Score: inf
ROOT
ATOM      1  C   UNL     1       8.393  -0.666  -2.108  1.00  0.00     0.127 C 
ENDROOT
BRANCH   1   2
ATOM      2  C   UNL     1       8.399  -1.919  -2.884  1.00  0.00     0.303 C 
ATOM      3  O   UNL     1       7.299  -2.423  -3.240  1.00  0.00    -0.252 OA
BRANCH   2   4
ATOM      4  O   UNL     1       9.587  -2.570  -3.243  1.00  0.00    -0.481 OA
ATOM      5  H   UNL     1      10.115  -3.045  -2.523  1.00  0.00     0.296 HD
ENDBRANCH   2   4
ENDBRANCH   1   2
BRANCH   1   6
ATOM      6  C   UNL     1       7.036   0.015  -2.128  1.00  0.00     0.047 C 
BRANCH   6   7
ATOM      7  C   UNL     1       6.475   0.125  -0.756  1.00  0.00    -0.047 A 
ATOM      8  C   UNL     1       6.611  -0.917   0.150  1.00  0.00     0.004 A 
ATOM      9  C   UNL     1       5.791   1.243  -0.315  1.00  0.00     0.004 A 
ATOM     10  C   UNL     1       6.094  -0.849   1.424  1.00  0.00     0.000 A 
ATOM     11  C   UNL     1       5.274   1.309   0.961  1.00  0.00     0.000 A 
ATOM     12  C   UNL     1       5.412   0.271   1.854  1.00  0.00     0.000 A 
ENDBRANCH   6   7
ENDBRANCH   1   6
TORSDOF 4
ENDMDL
MODEL 2
REMARK VINA RESULT:      -7.2      0.029      1.421
REMARK SMILES O=C(O)CCc1ccccc1
REMARK SMILES IDX 4 1 2 2 1 3 3 4 5 6 6 7 7 8 11 9 8 10 10 11 9 12
REMARK H PARENT 3 5
REMARK Flexibility Score: inf
ROOT
ATOM      1  C   UNL     1       8.393  -0.649  -2.136  1.00  0.00     0.127 C 
ENDROOT
BRANCH   1   2
ATOM      2  C   UNL     1       8.393  -1.912  -2.897  1.00  0.00     0.303 C 
ATOM      3  O   UNL     1       7.292  -2.417  -3.245  1.00  0.00    -0.252 OA
BRANCH   2   4
ATOM      4  O   UNL     1       9.579  -2.572  -3.248  1.00  0.00    -0.481 OA
ATOM      5  H   UNL     1      10.057  -2.291  -4.094  1.00  0.00     0.296 HD
ENDBRANCH   2   4
ENDBRANCH   1   2
BRANCH   1   6
ATOM      6  C   UNL     1       7.027   0.013  -2.125  1.00  0.00     0.047 C 
BRANCH   6   7
ATOM      7  C   UNL     1       6.477   0.076  -0.746  1.00  0.00    -0.047 A 
ATOM      8  C   UNL     1       5.804   1.206  -0.303  1.00  0.00     0.004 A 
ATOM      9  C   UNL     1       6.609  -0.960   0.161  1.00  0.00     0.004 A 
ATOM     10  C   UNL     1       5.292   1.299   0.971  1.00  0.00     0.000 A 
ATOM     11  C   UNL     1       6.095  -0.865   1.436  1.00  0.00     0.000 A 
ATOM     12  C   UNL     1       5.430   0.260   1.869  1.00  0.00     0.000 A 
ENDBRANCH   6   7
ENDBRANCH   1   6
TORSDOF 4
ENDMDL
MODEL 3
REMARK VINA RESULT:      -6.8      3.328      5.176
REMARK SMILES O=C(O)CCc1ccccc1
REMARK SMILES IDX 4 1 2 2 1 3 3 4 5 6 6 7 7 8 11 9 8 10 10 11 9 12
REMARK H PARENT 3 5
REMARK Flexibility Score: inf
ROOT
ATOM      1  C   UNL     1       5.011   1.756   0.732  1.00  0.00     0.127 C 
ENDROOT
BRANCH   1   2
ATOM      2  C   UNL     1       4.467   1.100   1.934  1.00  0.00     0.303 C 
ATOM      3  O   UNL     1       5.138   0.190   2.492  1.00  0.00    -0.252 OA
BRANCH   2   4
ATOM      4  O   UNL     1       3.226   1.455   2.482  1.00  0.00    -0.481 OA
ATOM      5  H   UNL     1       3.211   1.959   3.359  1.00  0.00     0.296 HD
ENDBRANCH   2   4
ENDBRANCH   1   2
BRANCH   1   6
ATOM      6  C   UNL     1       6.526   1.851   0.766  1.00  0.00     0.047 C 
BRANCH   6   7
ATOM      7  C   UNL     1       7.135   1.047  -0.325  1.00  0.00    -0.047 A 
ATOM      8  C   UNL     1       8.466   1.223  -0.677  1.00  0.00     0.004 A 
ATOM      9  C   UNL     1       6.425   0.103  -1.046  1.00  0.00     0.004 A 
ATOM     10  C   UNL     1       9.056   0.502  -1.689  1.00  0.00     0.000 A 
ATOM     11  C   UNL     1       7.018  -0.619  -2.059  1.00  0.00     0.000 A 
ATOM     12  C   UNL     1       8.338  -0.437  -2.403  1.00  0.00     0.000 A 
ENDBRANCH   6   7
ENDBRANCH   1   6
TORSDOF 4
ENDMDL
MODEL 4
REMARK VINA RESULT:      -6.8      3.324      5.154
REMARK SMILES O=C(O)CCc1ccccc1
REMARK SMILES IDX 4 1 2 2 1 3 3 4 5 6 6 7 7 8 11 9 8 10 10 11 9 12
REMARK H PARENT 3 5
REMARK Flexibility Score: inf
ROOT
ATOM      1  C   UNL     1       5.035   1.783   0.734  1.00  0.00     0.127 C 
ENDROOT
BRANCH   1   2
ATOM      2  C   UNL     1       4.482   1.112   1.924  1.00  0.00     0.303 C 
ATOM      3  O   UNL     1       5.148   0.194   2.475  1.00  0.00    -0.252 OA
BRANCH   2   4
ATOM      4  O   UNL     1       3.237   1.461   2.469  1.00  0.00    -0.481 OA
ATOM      5  H   UNL     1       3.012   2.441   2.572  1.00  0.00     0.296 HD
ENDBRANCH   2   4
ENDBRANCH   1   2
BRANCH   1   6
ATOM      6  C   UNL     1       6.549   1.876   0.780  1.00  0.00     0.047 C 
BRANCH   6   7
ATOM      7  C   UNL     1       7.165   1.094  -0.323  1.00  0.00    -0.047 A 
ATOM      8  C   UNL     1       6.411   0.185  -1.053  1.00  0.00     0.004 A 
ATOM      9  C   UNL     1       8.497   1.214  -0.674  1.00  0.00     0.004 A 
ATOM     10  C   UNL     1       6.953  -0.561  -2.073  1.00  0.00     0.000 A 
ATOM     11  C   UNL     1       9.039   0.466  -1.696  1.00  0.00     0.000 A 
ATOM     12  C   UNL     1       8.285  -0.434  -2.415  1.00  0.00     0.000 A 
ENDBRANCH   6   7
ENDBRANCH   1   6
TORSDOF 4
ENDMDL
MODEL 5
REMARK VINA RESULT:      -6.6      1.937      2.264
REMARK SMILES O=C(O)CCc1ccccc1
REMARK SMILES IDX 4 1 2 2 1 3 3 4 5 6 6 7 7 8 11 9 8 10 10 11 9 12
REMARK H PARENT 3 5
REMARK Flexibility Score: inf
ROOT
ATOM      1  C   UNL     1       8.268   0.268  -2.201  1.00  0.00     0.127 C 
ENDROOT
BRANCH   1   2
ATOM      2  C   UNL     1       9.391   0.410  -1.257  1.00  0.00     0.303 C 
ATOM      3  O   UNL     1       9.466  -0.375  -0.273  1.00  0.00    -0.252 OA
BRANCH   2   4
ATOM      4  O   UNL     1      10.382   1.389  -1.416  1.00  0.00    -0.481 OA
ATOM      5  H   UNL     1      10.413   2.156  -0.758  1.00  0.00     0.296 HD
ENDBRANCH   2   4
ENDBRANCH   1   2
BRANCH   1   6
ATOM      6  C   UNL     1       7.124  -0.541  -1.616  1.00  0.00     0.047 C 
BRANCH   6   7
ATOM      7  C   UNL     1       6.348   0.266  -0.638  1.00  0.00    -0.047 A 
ATOM      8  C   UNL     1       6.124  -0.205   0.648  1.00  0.00     0.004 A 
ATOM      9  C   UNL     1       5.807   1.500  -0.948  1.00  0.00     0.004 A 
ATOM     10  C   UNL     1       5.401   0.512   1.573  1.00  0.00     0.000 A 
ATOM     11  C   UNL     1       5.083   2.217  -0.020  1.00  0.00     0.000 A 
ATOM     12  C   UNL     1       4.863   1.743   1.253  1.00  0.00     0.000 A 
ENDBRANCH   6   7
ENDBRANCH   1   6
TORSDOF 4
ENDMDL
