@<TRIPOS>MOLECULE
/home/cewinharhar/GITHUB/reincatalyze/data/processed/docking_pred/2023-Apr-25-2248_maxeplen10_maxtrainstep1000_exh16_gamma099_lrac3e-4_lrcr1e-3/2cf69de7cf34ef354308742c6722c88054a527ce_ligand_2.pdbqt
 12 12 0 0 0
SMALL
GASTEIGER

@<TRIPOS>ATOM
      1  C          5.0350    1.7830    0.7340 C.3     1  UNL1        0.1270
      2  C          4.4820    1.1120    1.9240 C.2     1  UNL1        0.3030
      3  O          5.1480    0.1940    2.4750 O.2     1  UNL1       -0.2520
      4  O          3.2370    1.4610    2.4690 O.3     1  UNL1       -0.4810
      5  H          3.0120    2.4410    2.5720 H       1  UNL1        0.2960
      6  C          6.5490    1.8760    0.7800 C.3     1  UNL1        0.0470
      7  C          7.1650    1.0940   -0.3230 C.2     1  UNL1       -0.0470
      8  C          6.4110    0.1850   -1.0530 C.2     1  UNL1        0.0040
      9  C          8.4970    1.2140   -0.6740 C.2     1  UNL1        0.0040
     10  C          6.9530   -0.5610   -2.0730 C.2     1  UNL1        0.0000
     11  C          9.0390    0.4660   -1.6960 C.2     1  UNL1        0.0000
     12  C          8.2850   -0.4340   -2.4150 C.2     1  UNL1        0.0000
@<TRIPOS>BOND
     1    12    10    2
     2    12    11    1
     3    10     8    1
     4    11     9    2
     5     8     7    2
     6     9     7    1
     7     7     6    1
     8     1     6    1
     9     1     2    1
    10     2     4    1
    11     2     3    2
    12     4     5    1
