@<TRIPOS>MOLECULE
/home/cewinharhar/GITHUB/reincatalyze/data/processed/docking_pred/2023-Apr-25-2248_maxeplen10_maxtrainstep1000_exh16_gamma099_lrac3e-4_lrcr1e-3/2cf69de7cf34ef354308742c6722c88054a527ce_ligand_2.pdbqt
 12 12 0 0 0
SMALL
GASTEIGER

@<TRIPOS>ATOM
      1  C          8.2680    0.2680   -2.2010 C.3     1  UNL1        0.1270
      2  C          9.3910    0.4100   -1.2570 C.2     1  UNL1        0.3030
      3  O          9.4660   -0.3750   -0.2730 O.2     1  UNL1       -0.2520
      4  O         10.3820    1.3890   -1.4160 O.3     1  UNL1       -0.4810
      5  H         10.4130    2.1560   -0.7580 H       1  UNL1        0.2960
      6  C          7.1240   -0.5410   -1.6160 C.3     1  UNL1        0.0470
      7  C          6.3480    0.2660   -0.6380 C.2     1  UNL1       -0.0470
      8  C          6.1240   -0.2050    0.6480 C.2     1  UNL1        0.0040
      9  C          5.8070    1.5000   -0.9480 C.2     1  UNL1        0.0040
     10  C          5.4010    0.5120    1.5730 C.2     1  UNL1        0.0000
     11  C          5.0830    2.2170   -0.0200 C.2     1  UNL1        0.0000
     12  C          4.8630    1.7430    1.2530 C.2     1  UNL1        0.0000
@<TRIPOS>BOND
     1     1     6    1
     2     1     2    1
     3     6     7    1
     4     4     2    1
     5     4     5    1
     6     2     3    2
     7     9     7    2
     8     9    11    1
     9     7     8    1
    10    11    12    2
    11     8    10    2
    12    12    10    1
