@<TRIPOS>MOLECULE
/home/cewinharhar/GITHUB/reincatalyze/data/processed/docking_pred/2023-Apr-25-2248_maxeplen10_maxtrainstep1000_exh16_gamma099_lrac3e-4_lrcr1e-3/2cf69de7cf34ef354308742c6722c88054a527ce_ligand_2.pdbqt
 12 12 0 0 0
SMALL
GASTEIGER

@<TRIPOS>ATOM
      1  C          8.3930   -0.6490   -2.1360 C.3     1  UNL1        0.1270
      2  C          8.3930   -1.9120   -2.8970 C.2     1  UNL1        0.3030
      3  O          7.2920   -2.4170   -3.2450 O.2     1  UNL1       -0.2520
      4  O          9.5790   -2.5720   -3.2480 O.3     1  UNL1       -0.4810
      5  H         10.0570   -2.2910   -4.0940 H       1  UNL1        0.2960
      6  C          7.0270    0.0130   -2.1250 C.3     1  UNL1        0.0470
      7  C          6.4770    0.0760   -0.7460 C.2     1  UNL1       -0.0470
      8  C          5.8040    1.2060   -0.3030 C.2     1  UNL1        0.0040
      9  C          6.6090   -0.9600    0.1610 C.2     1  UNL1        0.0040
     10  C          5.2920    1.2990    0.9710 C.2     1  UNL1        0.0000
     11  C          6.0950   -0.8650    1.4360 C.2     1  UNL1        0.0000
     12  C          5.4300    0.2600    1.8690 C.2     1  UNL1        0.0000
@<TRIPOS>BOND
     1     5     4    1
     2     4     2    1
     3     3     2    2
     4     2     1    1
     5     1     6    1
     6     6     7    1
     7     7     8    2
     8     7     9    1
     9     8    10    1
    10     9    11    2
    11    10    12    2
    12    11    12    1
