@<TRIPOS>MOLECULE
/home/cewinharhar/GITHUB/reincatalyze/data/processed/docking_pred/2023-Apr-25-2248_maxeplen10_maxtrainstep1000_exh16_gamma099_lrac3e-4_lrcr1e-3/2d2d9026ea33a6842fa37a74e1533968fe9c5ac5_ligand_2.pdbqt
 12 12 0 0 0
SMALL
GASTEIGER

@<TRIPOS>ATOM
      1  C          8.2590    0.4110   -1.9520 C.3     1  UNL1        0.1270
      2  C          9.4630    0.4280   -1.1020 C.2     1  UNL1        0.3030
      3  O          9.5330   -0.3640   -0.1240 O.2     1  UNL1       -0.2520
      4  O         10.5370    1.2960   -1.3450 O.3     1  UNL1       -0.4810
      5  H         11.3300    1.2710   -0.7180 H       1  UNL1        0.2960
      6  C          7.2010   -0.5440   -1.4280 C.3     1  UNL1        0.0470
      7  C          6.3770    0.1010   -0.3720 C.2     1  UNL1       -0.0470
      8  C          5.8010    1.3460   -0.5850 C.2     1  UNL1        0.0040
      9  C          6.1490   -0.4830    0.8610 C.2     1  UNL1        0.0040
     10  C          5.0420    1.9740    0.3750 C.2     1  UNL1        0.0000
     11  C          5.3890    0.1480    1.8220 C.2     1  UNL1        0.0000
     12  C          4.8220    1.3830    1.6030 C.2     1  UNL1        0.0000
@<TRIPOS>BOND
     1     1     6    1
     2     1     2    1
     3     6     7    1
     4     4     2    1
     5     4     5    1
     6     2     3    2
     7     8     7    2
     8     8    10    1
     9     7     9    1
    10    10    12    2
    11     9    11    2
    12    12    11    1
