@<TRIPOS>MOLECULE
/home/cewinharhar/GITHUB/reincatalyze/data/processed/docking_pred/2023-Apr-25-2248_maxeplen10_maxtrainstep1000_exh16_gamma099_lrac3e-4_lrcr1e-3/2d2d9026ea33a6842fa37a74e1533968fe9c5ac5_ligand_2.pdbqt
 12 12 0 0 0
SMALL
GASTEIGER

@<TRIPOS>ATOM
      1  C          8.2400   -0.8870   -1.9490 C.3     1  UNL1        0.1270
      2  C          8.3590   -2.0160   -2.8870 C.2     1  UNL1        0.3030
      3  O          9.4950   -2.5250   -3.0930 O.2     1  UNL1       -0.2520
      4  O          7.2500   -2.5490   -3.5610 O.3     1  UNL1       -0.4810
      5  H          6.7170   -3.2800   -3.1110 H       1  UNL1        0.2960
      6  C          7.6470   -1.3080   -0.6160 C.3     1  UNL1        0.0470
      7  C          6.7220   -0.2680   -0.0930 C.2     1  UNL1       -0.0470
      8  C          6.1880   -0.3750    1.1830 C.2     1  UNL1        0.0040
      9  C          6.3410    0.8350   -0.8330 C.2     1  UNL1        0.0040
     10  C          5.3210    0.5650    1.6930 C.2     1  UNL1        0.0000
     11  C          5.4720    1.7760   -0.3210 C.2     1  UNL1        0.0000
     12  C          4.9450    1.6630    0.9450 C.2     1  UNL1        0.0000
@<TRIPOS>BOND
     1     4     5    1
     2     4     2    1
     3     3     2    2
     4     2     1    1
     5     1     6    1
     6     9    11    1
     7     9     7    2
     8     6     7    1
     9    11    12    2
    10     7     8    1
    11    12    10    1
    12     8    10    2
