MODEL 1
REMARK VINA RESULT:      -7.3      0.000      0.000
REMARK SMILES O=C(O)CCc1ccccc1
REMARK SMILES IDX 4 1 2 2 1 3 3 4 5 6 6 7 7 8 11 9 8 10 10 11 9 12
REMARK H PARENT 3 5
REMARK Flexibility Score: inf
ROOT
ATOM      1  C   UNL     1       8.446  -0.643  -2.158  1.00  0.00     0.127 C 
ENDROOT
BRANCH   1   2
ATOM      2  C   UNL     1       8.457  -1.907  -2.915  1.00  0.00     0.303 C 
ATOM      3  O   UNL     1       9.555  -2.498  -3.104  1.00  0.00    -0.252 OA
BRANCH   2   4
ATOM      4  O   UNL     1       7.286  -2.478  -3.434  1.00  0.00    -0.481 OA
ATOM      5  H   UNL     1       7.360  -3.084  -4.240  1.00  0.00     0.296 HD
ENDBRANCH   2   4
ENDBRANCH   1   2
BRANCH   1   6
ATOM      6  C   UNL     1       7.075   0.009  -2.150  1.00  0.00     0.047 C 
BRANCH   6   7
ATOM      7  C   UNL     1       6.521   0.068  -0.772  1.00  0.00    -0.047 A 
ATOM      8  C   UNL     1       6.653  -1.011   0.091  1.00  0.00     0.004 A 
ATOM      9  C   UNL     1       5.847   1.172  -0.282  1.00  0.00     0.004 A 
ATOM     10  C   UNL     1       6.143  -0.992   1.368  1.00  0.00     0.000 A 
ATOM     11  C   UNL     1       5.336   1.189   0.998  1.00  0.00     0.000 A 
ATOM     12  C   UNL     1       5.471   0.114   1.847  1.00  0.00     0.000 A 
ENDBRANCH   6   7
ENDBRANCH   1   6
TORSDOF 4
ENDMDL
MODEL 2
REMARK VINA RESULT:      -7.3      0.132      1.726
REMARK SMILES O=C(O)CCc1ccccc1
REMARK SMILES IDX 4 1 2 2 1 3 3 4 5 6 6 7 7 8 11 9 8 10 10 11 9 12
REMARK H PARENT 3 5
REMARK Flexibility Score: inf
ROOT
ATOM      1  C   UNL     1       8.373  -0.624  -2.156  1.00  0.00     0.127 C 
ENDROOT
BRANCH   1   2
ATOM      2  C   UNL     1       8.383  -1.897  -2.897  1.00  0.00     0.303 C 
ATOM      3  O   UNL     1       7.286  -2.409  -3.250  1.00  0.00    -0.252 OA
BRANCH   2   4
ATOM      4  O   UNL     1       9.573  -2.561  -3.227  1.00  0.00    -0.481 OA
ATOM      5  H   UNL     1      10.415  -2.014  -3.347  1.00  0.00     0.296 HD
ENDBRANCH   2   4
ENDBRANCH   1   2
BRANCH   1   6
ATOM      6  C   UNL     1       6.999   0.021  -2.141  1.00  0.00     0.047 C 
BRANCH   6   7
ATOM      7  C   UNL     1       6.459   0.093  -0.758  1.00  0.00    -0.047 A 
ATOM      8  C   UNL     1       5.781   1.222  -0.321  1.00  0.00     0.004 A 
ATOM      9  C   UNL     1       6.605  -0.934   0.156  1.00  0.00     0.004 A 
ATOM     10  C   UNL     1       5.279   1.323   0.956  1.00  0.00     0.000 A 
ATOM     11  C   UNL     1       6.100  -0.831   1.435  1.00  0.00     0.000 A 
ATOM     12  C   UNL     1       5.431   0.293   1.862  1.00  0.00     0.000 A 
ENDBRANCH   6   7
ENDBRANCH   1   6
TORSDOF 4
ENDMDL
MODEL 3
REMARK VINA RESULT:      -7.1      0.685      1.224
REMARK SMILES O=C(O)CCc1ccccc1
REMARK SMILES IDX 4 1 2 2 1 3 3 4 5 6 6 7 7 8 11 9 8 10 10 11 9 12
REMARK H PARENT 3 5
REMARK Flexibility Score: inf
ROOT
ATOM      1  C   UNL     1       8.240  -0.887  -1.949  1.00  0.00     0.127 C 
ENDROOT
BRANCH   1   2
ATOM      2  C   UNL     1       8.359  -2.016  -2.887  1.00  0.00     0.303 C 
ATOM      3  O   UNL     1       9.495  -2.525  -3.093  1.00  0.00    -0.252 OA
BRANCH   2   4
ATOM      4  O   UNL     1       7.250  -2.549  -3.561  1.00  0.00    -0.481 OA
ATOM      5  H   UNL     1       6.717  -3.280  -3.111  1.00  0.00     0.296 HD
ENDBRANCH   2   4
ENDBRANCH   1   2
BRANCH   1   6
ATOM      6  C   UNL     1       7.647  -1.308  -0.616  1.00  0.00     0.047 C 
BRANCH   6   7
ATOM      7  C   UNL     1       6.722  -0.268  -0.093  1.00  0.00    -0.047 A 
ATOM      8  C   UNL     1       6.188  -0.375   1.183  1.00  0.00     0.004 A 
ATOM      9  C   UNL     1       6.341   0.835  -0.833  1.00  0.00     0.004 A 
ATOM     10  C   UNL     1       5.321   0.565   1.693  1.00  0.00     0.000 A 
ATOM     11  C   UNL     1       5.472   1.776  -0.321  1.00  0.00     0.000 A 
ATOM     12  C   UNL     1       4.945   1.663   0.945  1.00  0.00     0.000 A 
ENDBRANCH   6   7
ENDBRANCH   1   6
TORSDOF 4
ENDMDL
MODEL 4
REMARK VINA RESULT:      -6.8      3.393      5.092
REMARK SMILES O=C(O)CCc1ccccc1
REMARK SMILES IDX 4 1 2 2 1 3 3 4 5 6 6 7 7 8 11 9 8 10 10 11 9 12
REMARK H PARENT 3 5
REMARK Flexibility Score: inf
ROOT
ATOM      1  C   UNL     1       5.000   1.775   0.725  1.00  0.00     0.127 C 
ENDROOT
BRANCH   1   2
ATOM      2  C   UNL     1       4.469   1.107   1.927  1.00  0.00     0.303 C 
ATOM      3  O   UNL     1       5.153   0.200   2.475  1.00  0.00    -0.252 OA
BRANCH   2   4
ATOM      4  O   UNL     1       3.228   1.446   2.484  1.00  0.00    -0.481 OA
ATOM      5  H   UNL     1       2.613   2.054   1.961  1.00  0.00     0.296 HD
ENDBRANCH   2   4
ENDBRANCH   1   2
BRANCH   1   6
ATOM      6  C   UNL     1       6.514   1.880   0.748  1.00  0.00     0.047 C 
BRANCH   6   7
ATOM      7  C   UNL     1       7.122   1.062  -0.334  1.00  0.00    -0.047 A 
ATOM      8  C   UNL     1       8.463   1.202  -0.660  1.00  0.00     0.004 A 
ATOM      9  C   UNL     1       6.400   0.140  -1.070  1.00  0.00     0.004 A 
ATOM     10  C   UNL     1       9.052   0.468  -1.663  1.00  0.00     0.000 A 
ATOM     11  C   UNL     1       6.991  -0.595  -2.075  1.00  0.00     0.000 A 
ATOM     12  C   UNL     1       8.322  -0.449  -2.393  1.00  0.00     0.000 A 
ENDBRANCH   6   7
ENDBRANCH   1   6
TORSDOF 4
ENDMDL
MODEL 5
REMARK VINA RESULT:      -6.6      2.005      2.702
REMARK SMILES O=C(O)CCc1ccccc1
REMARK SMILES IDX 4 1 2 2 1 3 3 4 5 6 6 7 7 8 11 9 8 10 10 11 9 12
REMARK H PARENT 3 5
REMARK Flexibility Score: inf
ROOT
ATOM      1  C   UNL     1       8.259   0.411  -1.952  1.00  0.00     0.127 C 
ENDROOT
BRANCH   1   2
ATOM      2  C   UNL     1       9.463   0.428  -1.102  1.00  0.00     0.303 C 
ATOM      3  O   UNL     1       9.533  -0.364  -0.124  1.00  0.00    -0.252 OA
BRANCH   2   4
ATOM      4  O   UNL     1      10.537   1.296  -1.345  1.00  0.00    -0.481 OA
ATOM      5  H   UNL     1      11.330   1.271  -0.718  1.00  0.00     0.296 HD
ENDBRANCH   2   4
ENDBRANCH   1   2
BRANCH   1   6
ATOM      6  C   UNL     1       7.201  -0.544  -1.428  1.00  0.00     0.047 C 
BRANCH   6   7
ATOM      7  C   UNL     1       6.377   0.101  -0.372  1.00  0.00    -0.047 A 
ATOM      8  C   UNL     1       5.801   1.346  -0.585  1.00  0.00     0.004 A 
ATOM      9  C   UNL     1       6.149  -0.483   0.861  1.00  0.00     0.004 A 
ATOM     10  C   UNL     1       5.042   1.974   0.375  1.00  0.00     0.000 A 
ATOM     11  C   UNL     1       5.389   0.148   1.822  1.00  0.00     0.000 A 
ATOM     12  C   UNL     1       4.822   1.383   1.603  1.00  0.00     0.000 A 
ENDBRANCH   6   7
ENDBRANCH   1   6
TORSDOF 4
ENDMDL
