@<TRIPOS>MOLECULE
/home/cewinharhar/GITHUB/reincatalyze/data/processed/docking_pred/2023-Apr-25-2248_maxeplen10_maxtrainstep1000_exh16_gamma099_lrac3e-4_lrcr1e-3/2d2d9026ea33a6842fa37a74e1533968fe9c5ac5_ligand_2.pdbqt
 12 12 0 0 0
SMALL
GASTEIGER

@<TRIPOS>ATOM
      1  C          8.3730   -0.6240   -2.1560 C.3     1  UNL1        0.1270
      2  C          8.3830   -1.8970   -2.8970 C.2     1  UNL1        0.3030
      3  O          7.2860   -2.4090   -3.2500 O.2     1  UNL1       -0.2520
      4  O          9.5730   -2.5610   -3.2270 O.3     1  UNL1       -0.4810
      5  H         10.4150   -2.0140   -3.3470 H       1  UNL1        0.2960
      6  C          6.9990    0.0210   -2.1410 C.3     1  UNL1        0.0470
      7  C          6.4590    0.0930   -0.7580 C.2     1  UNL1       -0.0470
      8  C          5.7810    1.2220   -0.3210 C.2     1  UNL1        0.0040
      9  C          6.6050   -0.9340    0.1560 C.2     1  UNL1        0.0040
     10  C          5.2790    1.3230    0.9560 C.2     1  UNL1        0.0000
     11  C          6.1000   -0.8310    1.4350 C.2     1  UNL1        0.0000
     12  C          5.4310    0.2930    1.8620 C.2     1  UNL1        0.0000
@<TRIPOS>BOND
     1     5     4    1
     2     3     2    2
     3     4     2    1
     4     2     1    1
     5     1     6    1
     6     6     7    1
     7     7     8    2
     8     7     9    1
     9     8    10    1
    10     9    11    2
    11    10    12    2
    12    11    12    1
