@<TRIPOS>MOLECULE
/home/cewinharhar/GITHUB/reincatalyze/data/processed/docking_pred/2023-Apr-25-2248_maxeplen10_maxtrainstep1000_exh16_gamma099_lrac3e-4_lrcr1e-3/2d2d9026ea33a6842fa37a74e1533968fe9c5ac5_ligand_2.pdbqt
 12 12 0 0 0
SMALL
GASTEIGER

@<TRIPOS>ATOM
      1  C          8.4460   -0.6430   -2.1580 C.3     1  UNL1        0.1270
      2  C          8.4570   -1.9070   -2.9150 C.2     1  UNL1        0.3030
      3  O          9.5550   -2.4980   -3.1040 O.2     1  UNL1       -0.2520
      4  O          7.2860   -2.4780   -3.4340 O.3     1  UNL1       -0.4810
      5  H          7.3600   -3.0840   -4.2400 H       1  UNL1        0.2960
      6  C          7.0750    0.0090   -2.1500 C.3     1  UNL1        0.0470
      7  C          6.5210    0.0680   -0.7720 C.2     1  UNL1       -0.0470
      8  C          6.6530   -1.0110    0.0910 C.2     1  UNL1        0.0040
      9  C          5.8470    1.1720   -0.2820 C.2     1  UNL1        0.0040
     10  C          6.1430   -0.9920    1.3680 C.2     1  UNL1        0.0000
     11  C          5.3360    1.1890    0.9980 C.2     1  UNL1        0.0000
     12  C          5.4710    0.1140    1.8470 C.2     1  UNL1        0.0000
@<TRIPOS>BOND
     1     5     4    1
     2     4     2    1
     3     3     2    2
     4     2     1    1
     5     1     6    1
     6     6     7    1
     7     7     9    2
     8     7     8    1
     9     9    11    1
    10     8    10    2
    11    11    12    2
    12    10    12    1
