@<TRIPOS>MOLECULE
/home/cewinharhar/GITHUB/reincatalyze/data/processed/docking_pred/2023-Apr-25-2248_maxeplen10_maxtrainstep1000_exh16_gamma099_lrac3e-4_lrcr1e-3/2d2d9026ea33a6842fa37a74e1533968fe9c5ac5_ligand_2.pdbqt
 12 12 0 0 0
SMALL
GASTEIGER

@<TRIPOS>ATOM
      1  C          5.0000    1.7750    0.7250 C.3     1  UNL1        0.1270
      2  C          4.4690    1.1070    1.9270 C.2     1  UNL1        0.3030
      3  O          5.1530    0.2000    2.4750 O.2     1  UNL1       -0.2520
      4  O          3.2280    1.4460    2.4840 O.3     1  UNL1       -0.4810
      5  H          2.6130    2.0540    1.9610 H       1  UNL1        0.2960
      6  C          6.5140    1.8800    0.7480 C.3     1  UNL1        0.0470
      7  C          7.1220    1.0620   -0.3340 C.2     1  UNL1       -0.0470
      8  C          8.4630    1.2020   -0.6600 C.2     1  UNL1        0.0040
      9  C          6.4000    0.1400   -1.0700 C.2     1  UNL1        0.0040
     10  C          9.0520    0.4680   -1.6630 C.2     1  UNL1        0.0000
     11  C          6.9910   -0.5950   -2.0750 C.2     1  UNL1        0.0000
     12  C          8.3220   -0.4490   -2.3930 C.2     1  UNL1        0.0000
@<TRIPOS>BOND
     1    12    11    2
     2    12    10    1
     3    11     9    1
     4    10     8    2
     5     9     7    2
     6     8     7    1
     7     7     6    1
     8     1     6    1
     9     1     2    1
    10     2     3    2
    11     2     4    1
    12     5     4    1
