@<TRIPOS>MOLECULE
/home/cewinharhar/GITHUB/reincatalyze/data/processed/docking_pred/2023-Apr-25-2248_maxeplen10_maxtrainstep1000_exh16_gamma099_lrac3e-4_lrcr1e-3/2d863d4e78c56822cb27942f8f89755da93ab859_ligand_2.pdbqt
 12 12 0 0 0
SMALL
GASTEIGER

@<TRIPOS>ATOM
      1  C          8.2770    0.1550   -2.2000 C.3     1  UNL1        0.1270
      2  C          9.3850    0.3440   -1.2480 C.2     1  UNL1        0.3030
      3  O          9.4540   -0.4010   -0.2330 O.2     1  UNL1       -0.2520
      4  O         10.3700    1.3260   -1.4320 O.3     1  UNL1       -0.4810
      5  H         10.3620    2.1380   -0.8300 H       1  UNL1        0.2960
      6  C          7.1220   -0.6190   -1.5910 C.3     1  UNL1        0.0470
      7  C          6.3510    0.2300   -0.6450 C.2     1  UNL1       -0.0470
      8  C          6.1120   -0.1950    0.6540 C.2     1  UNL1        0.0040
      9  C          5.8300    1.4610   -0.9990 C.2     1  UNL1        0.0040
     10  C          5.3930    0.5630    1.5500 C.2     1  UNL1        0.0000
     11  C          5.1100    2.2190   -0.1010 C.2     1  UNL1        0.0000
     12  C          4.8760    1.7900    1.1860 C.2     1  UNL1        0.0000
@<TRIPOS>BOND
     1     1     6    1
     2     1     2    1
     3     6     7    1
     4     4     2    1
     5     4     5    1
     6     2     3    2
     7     9     7    2
     8     9    11    1
     9     7     8    1
    10    11    12    2
    11     8    10    2
    12    12    10    1
