@<TRIPOS>MOLECULE
/home/cewinharhar/GITHUB/reincatalyze/data/processed/docking_pred/2023-Apr-25-2248_maxeplen10_maxtrainstep1000_exh16_gamma099_lrac3e-4_lrcr1e-3/2d863d4e78c56822cb27942f8f89755da93ab859_ligand_2.pdbqt
 12 12 0 0 0
SMALL
GASTEIGER

@<TRIPOS>ATOM
      1  C          8.1440   -1.6720    1.1810 C.3     1  UNL1        0.1270
      2  C          8.5090   -2.8380    0.3570 C.2     1  UNL1        0.3030
      3  O          9.2240   -3.7460    0.8630 O.2     1  UNL1       -0.2520
      4  O          8.0860   -2.9760   -0.9730 O.3     1  UNL1       -0.4810
      5  H          8.7590   -2.8230   -1.7120 H       1  UNL1        0.2960
      6  C          6.6440   -1.5610    1.3860 C.3     1  UNL1        0.0470
      7  C          6.1280   -0.2730    0.8530 C.2     1  UNL1       -0.0470
      8  C          6.3850    0.1050   -0.4570 C.2     1  UNL1        0.0040
      9  C          5.3880    0.6110    1.6170 C.2     1  UNL1        0.0040
     10  C          5.9300    1.2950   -0.9770 C.2     1  UNL1        0.0000
     11  C          4.9330    1.8020    1.0950 C.2     1  UNL1        0.0000
     12  C          5.1930    2.1700   -0.2050 C.2     1  UNL1        0.0000
@<TRIPOS>BOND
     1     5     4    1
     2    10     8    1
     3    10    12    2
     4     4     2    1
     5     8     7    2
     6    12    11    1
     7     2     3    2
     8     2     1    1
     9     7     6    1
    10     7     9    1
    11    11     9    2
    12     1     6    1
