@<TRIPOS>MOLECULE
/home/cewinharhar/GITHUB/reincatalyze/data/processed/docking_pred/2023-Apr-25-2248_maxeplen10_maxtrainstep1000_exh16_gamma099_lrac3e-4_lrcr1e-3/2d863d4e78c56822cb27942f8f89755da93ab859_ligand_2.pdbqt
 12 12 0 0 0
SMALL
GASTEIGER

@<TRIPOS>ATOM
      1  C          8.3990   -0.6630   -2.1180 C.3     1  UNL1        0.1270
      2  C          8.4280   -1.9140   -2.8960 C.2     1  UNL1        0.3030
      3  O          9.5320   -2.4960   -3.0790 O.2     1  UNL1       -0.2520
      4  O          7.2680   -2.4840   -3.4400 O.3     1  UNL1       -0.4810
      5  H          7.3620   -3.2930   -4.0400 H       1  UNL1        0.2960
      6  C          7.0240   -0.0200   -2.1180 C.3     1  UNL1        0.0470
      7  C          6.4800    0.0760   -0.7380 C.2     1  UNL1       -0.0470
      8  C          6.6050   -0.9860    0.1460 C.2     1  UNL1        0.0040
      9  C          5.8240    1.1980   -0.2680 C.2     1  UNL1        0.0040
     10  C          6.1040   -0.9330    1.4270 C.2     1  UNL1        0.0000
     11  C          5.3230    1.2500    1.0150 C.2     1  UNL1        0.0000
     12  C          5.4490    0.1920    1.8860 C.2     1  UNL1        0.0000
@<TRIPOS>BOND
     1     5     4    1
     2     4     2    1
     3     3     2    2
     4     2     1    1
     5     1     6    1
     6     6     7    1
     7     7     9    2
     8     7     8    1
     9     9    11    1
    10     8    10    2
    11    11    12    2
    12    10    12    1
