@<TRIPOS>MOLECULE
/home/cewinharhar/GITHUB/reincatalyze/data/processed/docking_pred/2023-Apr-25-2248_maxeplen10_maxtrainstep1000_exh16_gamma099_lrac3e-4_lrcr1e-3/2d863d4e78c56822cb27942f8f89755da93ab859_ligand_2.pdbqt
 12 12 0 0 0
SMALL
GASTEIGER

@<TRIPOS>ATOM
      1  C          4.9950    1.7860    0.6900 C.3     1  UNL1        0.1270
      2  C          4.4820    1.1280    1.9050 C.2     1  UNL1        0.3030
      3  O          5.1810    0.2380    2.4610 O.2     1  UNL1       -0.2520
      4  O          3.2410    1.4590    2.4680 O.3     1  UNL1       -0.4810
      5  H          2.9750    1.0250    3.3410 H       1  UNL1        0.2960
      6  C          6.5040    1.9500    0.7200 C.3     1  UNL1        0.0470
      7  C          7.1480    1.1520   -0.3560 C.2     1  UNL1       -0.0470
      8  C          6.4000    0.2800   -1.1350 C.2     1  UNL1        0.0040
      9  C          8.5010    1.2220   -0.6310 C.2     1  UNL1        0.0040
     10  C          6.9690   -0.4800   -2.1310 C.2     1  UNL1        0.0000
     11  C          9.0690    0.4590   -1.6290 C.2     1  UNL1        0.0000
     12  C          8.3210   -0.4040   -2.3970 C.2     1  UNL1        0.0000
@<TRIPOS>BOND
     1    12    10    2
     2    12    11    1
     3    10     8    1
     4    11     9    2
     5     8     7    2
     6     9     7    1
     7     7     6    1
     8     1     6    1
     9     1     2    1
    10     2     3    2
    11     2     4    1
    12     4     5    1
