@<TRIPOS>MOLECULE
/home/cewinharhar/GITHUB/reincatalyze/data/processed/docking_pred/2023-Apr-25-2248_maxeplen10_maxtrainstep1000_exh16_gamma099_lrac3e-4_lrcr1e-3/2d863d4e78c56822cb27942f8f89755da93ab859_ligand_2.pdbqt
 12 12 0 0 0
SMALL
GASTEIGER

@<TRIPOS>ATOM
      1  C          8.4040   -0.6040   -2.2020 C.3     1  UNL1        0.1270
      2  C          8.4280   -1.8910   -2.9180 C.2     1  UNL1        0.3030
      3  O          9.5280   -2.4910   -3.0640 O.2     1  UNL1       -0.2520
      4  O          7.2670   -2.4760   -3.4440 O.3     1  UNL1       -0.4810
      5  H          6.3900   -1.9810   -3.3480 H       1  UNL1        0.2960
      6  C          7.0130    0.0030   -2.1560 C.3     1  UNL1        0.0470
      7  C          6.4910    0.0330   -0.7650 C.2     1  UNL1       -0.0470
      8  C          5.8410    1.1590   -0.2780 C.2     1  UNL1        0.0040
      9  C          6.6260   -1.0290    0.1090 C.2     1  UNL1        0.0040
     10  C          5.3560    1.2220    1.0080 C.2     1  UNL1        0.0000
     11  C          6.1390   -0.9640    1.3960 C.2     1  UNL1        0.0000
     12  C          5.4970    0.1560    1.8730 C.2     1  UNL1        0.0000
@<TRIPOS>BOND
     1     4     5    1
     2     4     2    1
     3     3     2    2
     4     2     1    1
     5     1     6    1
     6     6     7    1
     7     7     8    2
     8     7     9    1
     9     8    10    1
    10     9    11    2
    11    10    12    2
    12    11    12    1
