MODEL 1
REMARK VINA RESULT:      -7.3      0.000      0.000
REMARK SMILES O=C(O)CCc1ccccc1
REMARK SMILES IDX 4 1 2 2 1 3 3 4 5 6 6 7 7 8 11 9 8 10 10 11 9 12
REMARK H PARENT 3 5
REMARK Flexibility Score: inf
ROOT
ATOM      1  C   UNL     1       8.409  -0.601  -2.235  1.00  0.00     0.127 C 
ENDROOT
BRANCH   1   2
ATOM      2  C   UNL     1       8.445  -1.899  -2.931  1.00  0.00     0.303 C 
ATOM      3  O   UNL     1       9.551  -2.486  -3.076  1.00  0.00    -0.252 OA
BRANCH   2   4
ATOM      4  O   UNL     1       7.288  -2.507  -3.439  1.00  0.00    -0.481 OA
ATOM      5  H   UNL     1       6.499  -2.638  -2.820  1.00  0.00     0.296 HD
ENDBRANCH   2   4
ENDBRANCH   1   2
BRANCH   1   6
ATOM      6  C   UNL     1       7.010  -0.013  -2.188  1.00  0.00     0.047 C 
BRANCH   6   7
ATOM      7  C   UNL     1       6.496   0.031  -0.794  1.00  0.00    -0.047 A 
ATOM      8  C   UNL     1       5.848   1.160  -0.314  1.00  0.00     0.004 A 
ATOM      9  C   UNL     1       6.640  -1.023   0.089  1.00  0.00     0.004 A 
ATOM     10  C   UNL     1       5.370   1.235   0.974  1.00  0.00     0.000 A 
ATOM     11  C   UNL     1       6.161  -0.946   1.379  1.00  0.00     0.000 A 
ATOM     12  C   UNL     1       5.519   0.178   1.849  1.00  0.00     0.000 A 
ENDBRANCH   6   7
ENDBRANCH   1   6
TORSDOF 4
ENDMDL
MODEL 2
REMARK VINA RESULT:      -7.3      0.244      1.735
REMARK SMILES O=C(O)CCc1ccccc1
REMARK SMILES IDX 4 1 2 2 1 3 3 4 5 6 6 7 7 8 11 9 8 10 10 11 9 12
REMARK H PARENT 3 5
REMARK Flexibility Score: inf
ROOT
ATOM      1  C   UNL     1       8.393  -0.780  -1.968  1.00  0.00     0.127 C 
ENDROOT
BRANCH   1   2
ATOM      2  C   UNL     1       8.387  -1.959  -2.852  1.00  0.00     0.303 C 
ATOM      3  O   UNL     1       7.284  -2.414  -3.258  1.00  0.00    -0.252 OA
BRANCH   2   4
ATOM      4  O   UNL     1       9.569  -2.593  -3.260  1.00  0.00    -0.481 OA
ATOM      5  H   UNL     1       9.553  -3.149  -4.105  1.00  0.00     0.296 HD
ENDBRANCH   2   4
ENDBRANCH   1   2
BRANCH   1   6
ATOM      6  C   UNL     1       7.104   0.016  -2.064  1.00  0.00     0.047 C 
BRANCH   6   7
ATOM      7  C   UNL     1       6.482   0.186  -0.725  1.00  0.00    -0.047 A 
ATOM      8  C   UNL     1       6.570  -0.818   0.229  1.00  0.00     0.004 A 
ATOM      9  C   UNL     1       5.786   1.324  -0.362  1.00  0.00     0.004 A 
ATOM     10  C   UNL     1       5.997  -0.695   1.474  1.00  0.00     0.000 A 
ATOM     11  C   UNL     1       5.212   1.446   0.885  1.00  0.00     0.000 A 
ATOM     12  C   UNL     1       5.303   0.445   1.826  1.00  0.00     0.000 A 
ENDBRANCH   6   7
ENDBRANCH   1   6
TORSDOF 4
ENDMDL
MODEL 3
REMARK VINA RESULT:      -6.8      3.406      5.079
REMARK SMILES O=C(O)CCc1ccccc1
REMARK SMILES IDX 4 1 2 2 1 3 3 4 5 6 6 7 7 8 11 9 8 10 10 11 9 12
REMARK H PARENT 3 5
REMARK Flexibility Score: inf
ROOT
ATOM      1  C   UNL     1       5.033   1.811   0.750  1.00  0.00     0.127 C 
ENDROOT
BRANCH   1   2
ATOM      2  C   UNL     1       4.478   1.125   1.930  1.00  0.00     0.303 C 
ATOM      3  O   UNL     1       5.147   0.204   2.473  1.00  0.00    -0.252 OA
BRANCH   2   4
ATOM      4  O   UNL     1       3.230   1.462   2.474  1.00  0.00    -0.481 OA
ATOM      5  H   UNL     1       3.153   2.312   3.016  1.00  0.00     0.296 HD
ENDBRANCH   2   4
ENDBRANCH   1   2
BRANCH   1   6
ATOM      6  C   UNL     1       6.549   1.876   0.783  1.00  0.00     0.047 C 
BRANCH   6   7
ATOM      7  C   UNL     1       7.141   1.075  -0.321  1.00  0.00    -0.047 A 
ATOM      8  C   UNL     1       8.476   1.225  -0.666  1.00  0.00     0.004 A 
ATOM      9  C   UNL     1       6.409   0.162  -1.058  1.00  0.00     0.004 A 
ATOM     10  C   UNL     1       9.051   0.507  -1.690  1.00  0.00     0.000 A 
ATOM     11  C   UNL     1       6.986  -0.556  -2.083  1.00  0.00     0.000 A 
ATOM     12  C   UNL     1       8.312  -0.401  -2.421  1.00  0.00     0.000 A 
ENDBRANCH   6   7
ENDBRANCH   1   6
TORSDOF 4
ENDMDL
MODEL 4
REMARK VINA RESULT:      -6.7      3.830      4.940
REMARK SMILES O=C(O)CCc1ccccc1
REMARK SMILES IDX 4 1 2 2 1 3 3 4 5 6 6 7 7 8 11 9 8 10 10 11 9 12
REMARK H PARENT 3 5
REMARK Flexibility Score: inf
ROOT
ATOM      1  C   UNL     1       5.608   2.941  -0.006  1.00  0.00     0.127 C 
ENDROOT
BRANCH   1   2
ATOM      2  C   UNL     1       6.318   3.935   0.819  1.00  0.00     0.303 C 
ATOM      3  O   UNL     1       7.071   4.774   0.253  1.00  0.00    -0.252 OA
BRANCH   2   4
ATOM      4  O   UNL     1       6.185   3.982   2.214  1.00  0.00    -0.481 OA
ATOM      5  H   UNL     1       6.372   3.143   2.746  1.00  0.00     0.296 HD
ENDBRANCH   2   4
ENDBRANCH   1   2
BRANCH   1   6
ATOM      6  C   UNL     1       4.878   1.912   0.838  1.00  0.00     0.047 C 
BRANCH   6   7
ATOM      7  C   UNL     1       5.654   0.647   0.924  1.00  0.00    -0.047 A 
ATOM      8  C   UNL     1       6.352   0.169  -0.175  1.00  0.00     0.004 A 
ATOM      9  C   UNL     1       5.717  -0.116   2.076  1.00  0.00     0.004 A 
ATOM     10  C   UNL     1       7.071  -1.004  -0.131  1.00  0.00     0.000 A 
ATOM     11  C   UNL     1       6.437  -1.290   2.119  1.00  0.00     0.000 A 
ATOM     12  C   UNL     1       7.126  -1.759   1.024  1.00  0.00     0.000 A 
ENDBRANCH   6   7
ENDBRANCH   1   6
TORSDOF 4
ENDMDL
MODEL 5
REMARK VINA RESULT:      -6.6      1.888      2.890
REMARK SMILES O=C(O)CCc1ccccc1
REMARK SMILES IDX 4 1 2 2 1 3 3 4 5 6 6 7 7 8 11 9 8 10 10 11 9 12
REMARK H PARENT 3 5
REMARK Flexibility Score: inf
ROOT
ATOM      1  C   UNL     1       8.116  -1.670   1.184  1.00  0.00     0.127 C 
ENDROOT
BRANCH   1   2
ATOM      2  C   UNL     1       8.481  -2.822   0.339  1.00  0.00     0.303 C 
ATOM      3  O   UNL     1       9.179  -3.748   0.835  1.00  0.00    -0.252 OA
BRANCH   2   4
ATOM      4  O   UNL     1       8.078  -2.925  -1.000  1.00  0.00    -0.481 OA
ATOM      5  H   UNL     1       7.430  -3.658  -1.254  1.00  0.00     0.296 HD
ENDBRANCH   2   4
ENDBRANCH   1   2
BRANCH   1   6
ATOM      6  C   UNL     1       6.613  -1.533   1.348  1.00  0.00     0.047 C 
BRANCH   6   7
ATOM      7  C   UNL     1       6.131  -0.244   0.787  1.00  0.00    -0.047 A 
ATOM      8  C   UNL     1       5.385   0.631   1.564  1.00  0.00     0.004 A 
ATOM      9  C   UNL     1       6.384   0.146  -0.515  1.00  0.00     0.004 A 
ATOM     10  C   UNL     1       4.916   1.827   1.070  1.00  0.00     0.000 A 
ATOM     11  C   UNL     1       5.913   1.344  -1.008  1.00  0.00     0.000 A 
ATOM     12  C   UNL     1       5.172   2.206  -0.232  1.00  0.00     0.000 A 
ENDBRANCH   6   7
ENDBRANCH   1   6
TORSDOF 4
ENDMDL
