@<TRIPOS>MOLECULE
/home/cewinharhar/GITHUB/reincatalyze/data/processed/docking_pred/2023-Apr-25-2248_maxeplen10_maxtrainstep1000_exh16_gamma099_lrac3e-4_lrcr1e-3/2f41e52dfc6618f39d2325611a45b0a1c53476a0_ligand_2.pdbqt
 12 12 0 0 0
SMALL
GASTEIGER

@<TRIPOS>ATOM
      1  C          8.4090   -0.6010   -2.2350 C.3     1  UNL1        0.1270
      2  C          8.4450   -1.8990   -2.9310 C.2     1  UNL1        0.3030
      3  O          9.5510   -2.4860   -3.0760 O.2     1  UNL1       -0.2520
      4  O          7.2880   -2.5070   -3.4390 O.3     1  UNL1       -0.4810
      5  H          6.4990   -2.6380   -2.8200 H       1  UNL1        0.2960
      6  C          7.0100   -0.0130   -2.1880 C.3     1  UNL1        0.0470
      7  C          6.4960    0.0310   -0.7940 C.2     1  UNL1       -0.0470
      8  C          5.8480    1.1600   -0.3140 C.2     1  UNL1        0.0040
      9  C          6.6400   -1.0230    0.0890 C.2     1  UNL1        0.0040
     10  C          5.3700    1.2350    0.9740 C.2     1  UNL1        0.0000
     11  C          6.1610   -0.9460    1.3790 C.2     1  UNL1        0.0000
     12  C          5.5190    0.1780    1.8490 C.2     1  UNL1        0.0000
@<TRIPOS>BOND
     1     4     2    1
     2     4     5    1
     3     3     2    2
     4     2     1    1
     5     1     6    1
     6     6     7    1
     7     7     8    2
     8     7     9    1
     9     8    10    1
    10     9    11    2
    11    10    12    2
    12    11    12    1
