@<TRIPOS>MOLECULE
/home/cewinharhar/GITHUB/reincatalyze/data/processed/docking_pred/2023-Apr-25-2248_maxeplen10_maxtrainstep1000_exh16_gamma099_lrac3e-4_lrcr1e-3/2f41e52dfc6618f39d2325611a45b0a1c53476a0_ligand_2.pdbqt
 12 12 0 0 0
SMALL
GASTEIGER

@<TRIPOS>ATOM
      1  C          5.6080    2.9410   -0.0060 C.3     1  UNL1        0.1270
      2  C          6.3180    3.9350    0.8190 C.2     1  UNL1        0.3030
      3  O          7.0710    4.7740    0.2530 O.2     1  UNL1       -0.2520
      4  O          6.1850    3.9820    2.2140 O.3     1  UNL1       -0.4810
      5  H          6.3720    3.1430    2.7460 H       1  UNL1        0.2960
      6  C          4.8780    1.9120    0.8380 C.3     1  UNL1        0.0470
      7  C          5.6540    0.6470    0.9240 C.2     1  UNL1       -0.0470
      8  C          6.3520    0.1690   -0.1750 C.2     1  UNL1        0.0040
      9  C          5.7170   -0.1160    2.0760 C.2     1  UNL1        0.0040
     10  C          7.0710   -1.0040   -0.1310 C.2     1  UNL1        0.0000
     11  C          6.4370   -1.2900    2.1190 C.2     1  UNL1        0.0000
     12  C          7.1260   -1.7590    1.0240 C.2     1  UNL1        0.0000
@<TRIPOS>BOND
     1     8    10    1
     2     8     7    2
     3    10    12    2
     4     1     2    1
     5     1     6    1
     6     3     2    2
     7     2     4    1
     8     6     7    1
     9     7     9    1
    10    12    11    1
    11     9    11    2
    12     4     5    1
