@<TRIPOS>MOLECULE
/home/cewinharhar/GITHUB/reincatalyze/data/processed/docking_pred/2023-Apr-25-2248_maxeplen10_maxtrainstep1000_exh16_gamma099_lrac3e-4_lrcr1e-3/2f41e52dfc6618f39d2325611a45b0a1c53476a0_ligand_2.pdbqt
 12 12 0 0 0
SMALL
GASTEIGER

@<TRIPOS>ATOM
      1  C          5.0330    1.8110    0.7500 C.3     1  UNL1        0.1270
      2  C          4.4780    1.1250    1.9300 C.2     1  UNL1        0.3030
      3  O          5.1470    0.2040    2.4730 O.2     1  UNL1       -0.2520
      4  O          3.2300    1.4620    2.4740 O.3     1  UNL1       -0.4810
      5  H          3.1530    2.3120    3.0160 H       1  UNL1        0.2960
      6  C          6.5490    1.8760    0.7830 C.3     1  UNL1        0.0470
      7  C          7.1410    1.0750   -0.3210 C.2     1  UNL1       -0.0470
      8  C          8.4760    1.2250   -0.6660 C.2     1  UNL1        0.0040
      9  C          6.4090    0.1620   -1.0580 C.2     1  UNL1        0.0040
     10  C          9.0510    0.5070   -1.6900 C.2     1  UNL1        0.0000
     11  C          6.9860   -0.5560   -2.0830 C.2     1  UNL1        0.0000
     12  C          8.3120   -0.4010   -2.4210 C.2     1  UNL1        0.0000
@<TRIPOS>BOND
     1    12    11    2
     2    12    10    1
     3    11     9    1
     4    10     8    2
     5     9     7    2
     6     8     7    1
     7     7     6    1
     8     1     6    1
     9     1     2    1
    10     2     3    2
    11     2     4    1
    12     4     5    1
