@<TRIPOS>MOLECULE
/home/cewinharhar/GITHUB/reincatalyze/data/processed/docking_pred/2023-Apr-25-2248_maxeplen10_maxtrainstep1000_exh16_gamma099_lrac3e-4_lrcr1e-3/2f41e52dfc6618f39d2325611a45b0a1c53476a0_ligand_2.pdbqt
 12 12 0 0 0
SMALL
GASTEIGER

@<TRIPOS>ATOM
      1  C          8.1160   -1.6700    1.1840 C.3     1  UNL1        0.1270
      2  C          8.4810   -2.8220    0.3390 C.2     1  UNL1        0.3030
      3  O          9.1790   -3.7480    0.8350 O.2     1  UNL1       -0.2520
      4  O          8.0780   -2.9250   -1.0000 O.3     1  UNL1       -0.4810
      5  H          7.4300   -3.6580   -1.2540 H       1  UNL1        0.2960
      6  C          6.6130   -1.5330    1.3480 C.3     1  UNL1        0.0470
      7  C          6.1310   -0.2440    0.7870 C.2     1  UNL1       -0.0470
      8  C          5.3850    0.6310    1.5640 C.2     1  UNL1        0.0040
      9  C          6.3840    0.1460   -0.5150 C.2     1  UNL1        0.0040
     10  C          4.9160    1.8270    1.0700 C.2     1  UNL1        0.0000
     11  C          5.9130    1.3440   -1.0080 C.2     1  UNL1        0.0000
     12  C          5.1720    2.2060   -0.2320 C.2     1  UNL1        0.0000
@<TRIPOS>BOND
     1     5     4    1
     2    11     9    1
     3    11    12    2
     4     4     2    1
     5     9     7    2
     6    12    10    1
     7     2     3    2
     8     2     1    1
     9     7     6    1
    10     7     8    1
    11    10     8    2
    12     1     6    1
