@<TRIPOS>MOLECULE
/home/cewinharhar/GITHUB/reincatalyze/data/processed/docking_pred/2023-Apr-25-2248_maxeplen10_maxtrainstep1000_exh16_gamma099_lrac3e-4_lrcr1e-3/2f41e52dfc6618f39d2325611a45b0a1c53476a0_ligand_2.pdbqt
 12 12 0 0 0
SMALL
GASTEIGER

@<TRIPOS>ATOM
      1  C          8.3930   -0.7800   -1.9680 C.3     1  UNL1        0.1270
      2  C          8.3870   -1.9590   -2.8520 C.2     1  UNL1        0.3030
      3  O          7.2840   -2.4140   -3.2580 O.2     1  UNL1       -0.2520
      4  O          9.5690   -2.5930   -3.2600 O.3     1  UNL1       -0.4810
      5  H          9.5530   -3.1490   -4.1050 H       1  UNL1        0.2960
      6  C          7.1040    0.0160   -2.0640 C.3     1  UNL1        0.0470
      7  C          6.4820    0.1860   -0.7250 C.2     1  UNL1       -0.0470
      8  C          6.5700   -0.8180    0.2290 C.2     1  UNL1        0.0040
      9  C          5.7860    1.3240   -0.3620 C.2     1  UNL1        0.0040
     10  C          5.9970   -0.6950    1.4740 C.2     1  UNL1        0.0000
     11  C          5.2120    1.4460    0.8850 C.2     1  UNL1        0.0000
     12  C          5.3030    0.4450    1.8260 C.2     1  UNL1        0.0000
@<TRIPOS>BOND
     1     5     4    1
     2     4     2    1
     3     3     2    2
     4     2     1    1
     5     6     1    1
     6     6     7    1
     7     7     9    2
     8     7     8    1
     9     9    11    1
    10     8    10    2
    11    11    12    2
    12    10    12    1
