@<TRIPOS>MOLECULE
/home/cewinharhar/GITHUB/reincatalyze/data/processed/docking_pred/2023-Apr-25-2248_maxeplen10_maxtrainstep1000_exh16_gamma099_lrac3e-4_lrcr1e-3/30246d56752cb6be0208f58fab85103c625ac011_ligand_2.pdbqt
 12 12 0 0 0
SMALL
GASTEIGER

@<TRIPOS>ATOM
      1  C          4.9960    1.7880    0.7190 C.3     1  UNL1        0.1270
      2  C          4.4690    1.1160    1.9190 C.2     1  UNL1        0.3030
      3  O          5.1540    0.2080    2.4630 O.2     1  UNL1       -0.2520
      4  O          3.2290    1.4530    2.4820 O.3     1  UNL1       -0.4810
      5  H          2.4030    1.3940    1.9020 H       1  UNL1        0.2960
      6  C          6.5100    1.9020    0.7430 C.3     1  UNL1        0.0470
      7  C          7.1230    1.0880   -0.3390 C.2     1  UNL1       -0.0470
      8  C          8.4660    1.2290   -0.6560 C.2     1  UNL1        0.0040
      9  C          6.4050    0.1690   -1.0820 C.2     1  UNL1        0.0040
     10  C          9.0610    0.4970   -1.6590 C.2     1  UNL1        0.0000
     11  C          7.0020   -0.5630   -2.0860 C.2     1  UNL1        0.0000
     12  C          8.3350   -0.4160   -2.3960 C.2     1  UNL1        0.0000
@<TRIPOS>BOND
     1    12    11    2
     2    12    10    1
     3    11     9    1
     4    10     8    2
     5     9     7    2
     6     8     7    1
     7     7     6    1
     8     1     6    1
     9     1     2    1
    10     5     4    1
    11     2     3    2
    12     2     4    1
