@<TRIPOS>MOLECULE
/home/cewinharhar/GITHUB/reincatalyze/data/processed/docking_pred/2023-Apr-25-2248_maxeplen10_maxtrainstep1000_exh16_gamma099_lrac3e-4_lrcr1e-3/30246d56752cb6be0208f58fab85103c625ac011_ligand_2.pdbqt
 12 12 0 0 0
SMALL
GASTEIGER

@<TRIPOS>ATOM
      1  C          8.4310   -0.6590   -2.1270 C.3     1  UNL1        0.1270
      2  C          8.4530   -1.9110   -2.9040 C.2     1  UNL1        0.3030
      3  O          9.5540   -2.4980   -3.0880 O.2     1  UNL1       -0.2520
      4  O          7.2900   -2.4750   -3.4470 O.3     1  UNL1       -0.4810
      5  H          7.3850   -3.1990   -4.1470 H       1  UNL1        0.2960
      6  C          7.0630   -0.0020   -2.1370 C.3     1  UNL1        0.0470
      7  C          6.4990    0.0750   -0.7640 C.2     1  UNL1       -0.0470
      8  C          5.8300    1.2130   -0.3370 C.2     1  UNL1        0.0040
      9  C          6.6140   -0.9550    0.1510 C.2     1  UNL1        0.0040
     10  C          5.3060    1.3200    0.9310 C.2     1  UNL1        0.0000
     11  C          6.0890   -0.8470    1.4210 C.2     1  UNL1        0.0000
     12  C          5.4270    0.2860    1.8380 C.2     1  UNL1        0.0000
@<TRIPOS>BOND
     1     5     4    1
     2     4     2    1
     3     3     2    2
     4     2     1    1
     5     6     1    1
     6     6     7    1
     7     7     8    2
     8     7     9    1
     9     8    10    1
    10     9    11    2
    11    10    12    2
    12    11    12    1
