@<TRIPOS>MOLECULE
/home/cewinharhar/GITHUB/reincatalyze/data/processed/docking_pred/2023-Apr-25-2248_maxeplen10_maxtrainstep1000_exh16_gamma099_lrac3e-4_lrcr1e-3/30246d56752cb6be0208f58fab85103c625ac011_ligand_2.pdbqt
 12 12 0 0 0
SMALL
GASTEIGER

@<TRIPOS>ATOM
      1  C          8.2700    0.2090   -2.2180 C.3     1  UNL1        0.1270
      2  C          9.3830    0.3510   -1.2620 C.2     1  UNL1        0.3030
      3  O          9.4320   -0.4150   -0.2610 O.2     1  UNL1       -0.2520
      4  O         10.3930    1.3100   -1.4270 O.3     1  UNL1       -0.4810
      5  H         10.2510    2.2330   -1.0380 H       1  UNL1        0.2960
      6  C          7.1150   -0.5880   -1.6390 C.3     1  UNL1        0.0470
      7  C          6.3390    0.2270   -0.6690 C.2     1  UNL1       -0.0470
      8  C          5.8200    1.4600   -1.0350 C.2     1  UNL1        0.0040
      9  C          6.1020   -0.1820    0.6310 C.2     1  UNL1        0.0040
     10  C          5.1060    2.2430   -0.1570 C.2     1  UNL1        0.0000
     11  C          5.3860    0.6030    1.5090 C.2     1  UNL1        0.0000
     12  C          4.8760    1.8260    1.1390 C.2     1  UNL1        0.0000
@<TRIPOS>BOND
     1     1     6    1
     2     1     2    1
     3     6     7    1
     4     4     2    1
     5     4     5    1
     6     2     3    2
     7     8     7    2
     8     8    10    1
     9     7     9    1
    10    10    12    2
    11     9    11    2
    12    12    11    1
