@<TRIPOS>MOLECULE
/home/cewinharhar/GITHUB/reincatalyze/data/processed/docking_pred/2023-Apr-25-2248_maxeplen10_maxtrainstep1000_exh16_gamma099_lrac3e-4_lrcr1e-3/30246d56752cb6be0208f58fab85103c625ac011_ligand_2.pdbqt
 12 12 0 0 0
SMALL
GASTEIGER

@<TRIPOS>ATOM
      1  C          5.0340    1.7830    0.6930 C.3     1  UNL1        0.1270
      2  C          4.5010    1.1310    1.9020 C.2     1  UNL1        0.3030
      3  O          5.1890    0.2400    2.4700 O.2     1  UNL1       -0.2520
      4  O          3.2540    1.4690    2.4460 O.3     1  UNL1       -0.4810
      5  H          2.6740    2.1330    1.9510 H       1  UNL1        0.2960
      6  C          6.5470    1.9050    0.7250 C.3     1  UNL1        0.0470
      7  C          7.1690    1.0980   -0.3570 C.2     1  UNL1       -0.0470
      8  C          6.4100    0.2060   -1.1000 C.2     1  UNL1        0.0040
      9  C          8.5130    1.1810   -0.6740 C.2     1  UNL1        0.0040
     10  C          6.9590   -0.5620   -2.1020 C.2     1  UNL1        0.0000
     11  C          9.0610    0.4110   -1.6770 C.2     1  UNL1        0.0000
     12  C          8.3020   -0.4730   -2.4090 C.2     1  UNL1        0.0000
@<TRIPOS>BOND
     1    12    10    2
     2    12    11    1
     3    10     8    1
     4    11     9    2
     5     8     7    2
     6     9     7    1
     7     7     6    1
     8     1     6    1
     9     1     2    1
    10     2     4    1
    11     2     3    2
    12     5     4    1
