@<TRIPOS>MOLECULE
/home/cewinharhar/GITHUB/reincatalyze/data/processed/docking_pred/2023-Apr-25-2248_maxeplen10_maxtrainstep1000_exh16_gamma099_lrac3e-4_lrcr1e-3/30246d56752cb6be0208f58fab85103c625ac011_ligand_2.pdbqt
 12 12 0 0 0
SMALL
GASTEIGER

@<TRIPOS>ATOM
      1  C          8.4020   -0.6160   -2.1960 C.3     1  UNL1        0.1270
      2  C          8.4370   -1.9000   -2.9190 C.2     1  UNL1        0.3030
      3  O          9.5420   -2.4890   -3.0670 O.2     1  UNL1       -0.2520
      4  O          7.2810   -2.4910   -3.4490 O.3     1  UNL1       -0.4810
      5  H          6.6570   -2.9800   -2.8210 H       1  UNL1        0.2960
      6  C          7.0140   -0.0020   -2.1830 C.3     1  UNL1        0.0470
      7  C          6.4870    0.0930   -0.7960 C.2     1  UNL1       -0.0470
      8  C          6.6140   -0.9720    0.0840 C.2     1  UNL1        0.0040
      9  C          5.8450    1.2200   -0.3150 C.2     1  UNL1        0.0040
     10  C          6.1270   -0.9180    1.3700 C.2     1  UNL1        0.0000
     11  C          5.3590    1.2720    0.9730 C.2     1  UNL1        0.0000
     12  C          5.4870    0.2100    1.8400 C.2     1  UNL1        0.0000
@<TRIPOS>BOND
     1     4     2    1
     2     4     5    1
     3     3     2    2
     4     2     1    1
     5     1     6    1
     6     6     7    1
     7     7     9    2
     8     7     8    1
     9     9    11    1
    10     8    10    2
    11    11    12    2
    12    10    12    1
