MODEL 1
REMARK VINA RESULT:      -7.3      0.000      0.000
REMARK SMILES O=C(O)CCc1ccccc1
REMARK SMILES IDX 4 1 2 2 1 3 3 4 5 6 6 7 7 8 11 9 8 10 10 11 9 12
REMARK H PARENT 3 5
REMARK Flexibility Score: inf
ROOT
ATOM      1  C   UNL     1       8.431  -0.659  -2.127  1.00  0.00     0.127 C 
ENDROOT
BRANCH   1   2
ATOM      2  C   UNL     1       8.453  -1.911  -2.904  1.00  0.00     0.303 C 
ATOM      3  O   UNL     1       9.554  -2.498  -3.088  1.00  0.00    -0.252 OA
BRANCH   2   4
ATOM      4  O   UNL     1       7.290  -2.475  -3.447  1.00  0.00    -0.481 OA
ATOM      5  H   UNL     1       7.385  -3.199  -4.147  1.00  0.00     0.296 HD
ENDBRANCH   2   4
ENDBRANCH   1   2
BRANCH   1   6
ATOM      6  C   UNL     1       7.063  -0.002  -2.137  1.00  0.00     0.047 C 
BRANCH   6   7
ATOM      7  C   UNL     1       6.499   0.075  -0.764  1.00  0.00    -0.047 A 
ATOM      8  C   UNL     1       5.830   1.213  -0.337  1.00  0.00     0.004 A 
ATOM      9  C   UNL     1       6.614  -0.955   0.151  1.00  0.00     0.004 A 
ATOM     10  C   UNL     1       5.306   1.320   0.931  1.00  0.00     0.000 A 
ATOM     11  C   UNL     1       6.089  -0.847   1.421  1.00  0.00     0.000 A 
ATOM     12  C   UNL     1       5.427   0.286   1.838  1.00  0.00     0.000 A 
ENDBRANCH   6   7
ENDBRANCH   1   6
TORSDOF 4
ENDMDL
MODEL 2
REMARK VINA RESULT:      -7.3      0.065      1.422
REMARK SMILES O=C(O)CCc1ccccc1
REMARK SMILES IDX 4 1 2 2 1 3 3 4 5 6 6 7 7 8 11 9 8 10 10 11 9 12
REMARK H PARENT 3 5
REMARK Flexibility Score: inf
ROOT
ATOM      1  C   UNL     1       8.402  -0.616  -2.196  1.00  0.00     0.127 C 
ENDROOT
BRANCH   1   2
ATOM      2  C   UNL     1       8.437  -1.900  -2.919  1.00  0.00     0.303 C 
ATOM      3  O   UNL     1       9.542  -2.489  -3.067  1.00  0.00    -0.252 OA
BRANCH   2   4
ATOM      4  O   UNL     1       7.281  -2.491  -3.449  1.00  0.00    -0.481 OA
ATOM      5  H   UNL     1       6.657  -2.980  -2.821  1.00  0.00     0.296 HD
ENDBRANCH   2   4
ENDBRANCH   1   2
BRANCH   1   6
ATOM      6  C   UNL     1       7.014  -0.002  -2.183  1.00  0.00     0.047 C 
BRANCH   6   7
ATOM      7  C   UNL     1       6.487   0.093  -0.796  1.00  0.00    -0.047 A 
ATOM      8  C   UNL     1       6.614  -0.972   0.084  1.00  0.00     0.004 A 
ATOM      9  C   UNL     1       5.845   1.220  -0.315  1.00  0.00     0.004 A 
ATOM     10  C   UNL     1       6.127  -0.918   1.370  1.00  0.00     0.000 A 
ATOM     11  C   UNL     1       5.359   1.272   0.973  1.00  0.00     0.000 A 
ATOM     12  C   UNL     1       5.487   0.210   1.840  1.00  0.00     0.000 A 
ENDBRANCH   6   7
ENDBRANCH   1   6
TORSDOF 4
ENDMDL
MODEL 3
REMARK VINA RESULT:      -6.8      3.397      5.081
REMARK SMILES O=C(O)CCc1ccccc1
REMARK SMILES IDX 4 1 2 2 1 3 3 4 5 6 6 7 7 8 11 9 8 10 10 11 9 12
REMARK H PARENT 3 5
REMARK Flexibility Score: inf
ROOT
ATOM      1  C   UNL     1       4.996   1.788   0.719  1.00  0.00     0.127 C 
ENDROOT
BRANCH   1   2
ATOM      2  C   UNL     1       4.469   1.116   1.919  1.00  0.00     0.303 C 
ATOM      3  O   UNL     1       5.154   0.208   2.463  1.00  0.00    -0.252 OA
BRANCH   2   4
ATOM      4  O   UNL     1       3.229   1.453   2.482  1.00  0.00    -0.481 OA
ATOM      5  H   UNL     1       2.403   1.394   1.902  1.00  0.00     0.296 HD
ENDBRANCH   2   4
ENDBRANCH   1   2
BRANCH   1   6
ATOM      6  C   UNL     1       6.510   1.902   0.743  1.00  0.00     0.047 C 
BRANCH   6   7
ATOM      7  C   UNL     1       7.123   1.088  -0.339  1.00  0.00    -0.047 A 
ATOM      8  C   UNL     1       8.466   1.229  -0.656  1.00  0.00     0.004 A 
ATOM      9  C   UNL     1       6.405   0.169  -1.082  1.00  0.00     0.004 A 
ATOM     10  C   UNL     1       9.061   0.497  -1.659  1.00  0.00     0.000 A 
ATOM     11  C   UNL     1       7.002  -0.563  -2.086  1.00  0.00     0.000 A 
ATOM     12  C   UNL     1       8.335  -0.416  -2.396  1.00  0.00     0.000 A 
ENDBRANCH   6   7
ENDBRANCH   1   6
TORSDOF 4
ENDMDL
MODEL 4
REMARK VINA RESULT:      -6.8      3.391      5.084
REMARK SMILES O=C(O)CCc1ccccc1
REMARK SMILES IDX 4 1 2 2 1 3 3 4 5 6 6 7 7 8 11 9 8 10 10 11 9 12
REMARK H PARENT 3 5
REMARK Flexibility Score: inf
ROOT
ATOM      1  C   UNL     1       5.034   1.783   0.693  1.00  0.00     0.127 C 
ENDROOT
BRANCH   1   2
ATOM      2  C   UNL     1       4.501   1.131   1.902  1.00  0.00     0.303 C 
ATOM      3  O   UNL     1       5.189   0.240   2.470  1.00  0.00    -0.252 OA
BRANCH   2   4
ATOM      4  O   UNL     1       3.254   1.469   2.446  1.00  0.00    -0.481 OA
ATOM      5  H   UNL     1       2.674   2.133   1.951  1.00  0.00     0.296 HD
ENDBRANCH   2   4
ENDBRANCH   1   2
BRANCH   1   6
ATOM      6  C   UNL     1       6.547   1.905   0.725  1.00  0.00     0.047 C 
BRANCH   6   7
ATOM      7  C   UNL     1       7.169   1.098  -0.357  1.00  0.00    -0.047 A 
ATOM      8  C   UNL     1       6.410   0.206  -1.100  1.00  0.00     0.004 A 
ATOM      9  C   UNL     1       8.513   1.181  -0.674  1.00  0.00     0.004 A 
ATOM     10  C   UNL     1       6.959  -0.562  -2.102  1.00  0.00     0.000 A 
ATOM     11  C   UNL     1       9.061   0.411  -1.677  1.00  0.00     0.000 A 
ATOM     12  C   UNL     1       8.302  -0.473  -2.409  1.00  0.00     0.000 A 
ENDBRANCH   6   7
ENDBRANCH   1   6
TORSDOF 4
ENDMDL
MODEL 5
REMARK VINA RESULT:      -6.6      1.935      2.335
REMARK SMILES O=C(O)CCc1ccccc1
REMARK SMILES IDX 4 1 2 2 1 3 3 4 5 6 6 7 7 8 11 9 8 10 10 11 9 12
REMARK H PARENT 3 5
REMARK Flexibility Score: inf
ROOT
ATOM      1  C   UNL     1       8.270   0.209  -2.218  1.00  0.00     0.127 C 
ENDROOT
BRANCH   1   2
ATOM      2  C   UNL     1       9.383   0.351  -1.262  1.00  0.00     0.303 C 
ATOM      3  O   UNL     1       9.432  -0.415  -0.261  1.00  0.00    -0.252 OA
BRANCH   2   4
ATOM      4  O   UNL     1      10.393   1.310  -1.427  1.00  0.00    -0.481 OA
ATOM      5  H   UNL     1      10.251   2.233  -1.038  1.00  0.00     0.296 HD
ENDBRANCH   2   4
ENDBRANCH   1   2
BRANCH   1   6
ATOM      6  C   UNL     1       7.115  -0.588  -1.639  1.00  0.00     0.047 C 
BRANCH   6   7
ATOM      7  C   UNL     1       6.339   0.227  -0.669  1.00  0.00    -0.047 A 
ATOM      8  C   UNL     1       5.820   1.460  -1.035  1.00  0.00     0.004 A 
ATOM      9  C   UNL     1       6.102  -0.182   0.631  1.00  0.00     0.004 A 
ATOM     10  C   UNL     1       5.106   2.243  -0.157  1.00  0.00     0.000 A 
ATOM     11  C   UNL     1       5.386   0.603   1.509  1.00  0.00     0.000 A 
ATOM     12  C   UNL     1       4.876   1.826   1.139  1.00  0.00     0.000 A 
ENDBRANCH   6   7
ENDBRANCH   1   6
TORSDOF 4
ENDMDL
