@<TRIPOS>MOLECULE
/home/cewinharhar/GITHUB/reincatalyze/data/processed/docking_pred/2023-Apr-25-2248_maxeplen10_maxtrainstep1000_exh16_gamma099_lrac3e-4_lrcr1e-3/306d1dfeb5e1085b4f3e24b09348dc81ae645662_ligand_2.pdbqt
 12 12 0 0 0
SMALL
GASTEIGER

@<TRIPOS>ATOM
      1  C          5.0000    1.7690    0.7270 C.3     1  UNL1        0.1270
      2  C          4.4690    1.1050    1.9310 C.2     1  UNL1        0.3030
      3  O          5.1520    0.2000    2.4830 O.2     1  UNL1       -0.2520
      4  O          3.2280    1.4460    2.4870 O.3     1  UNL1       -0.4810
      5  H          2.3870    1.1810    1.9920 H       1  UNL1        0.2960
      6  C          6.5140    1.8760    0.7520 C.3     1  UNL1        0.0470
      7  C          7.1240    1.0610   -0.3320 C.2     1  UNL1       -0.0470
      8  C          8.4660    1.2030   -0.6540 C.2     1  UNL1        0.0040
      9  C          6.4040    0.1420   -1.0720 C.2     1  UNL1        0.0040
     10  C          9.0570    0.4710   -1.6590 C.2     1  UNL1        0.0000
     11  C          6.9970   -0.5910   -2.0770 C.2     1  UNL1        0.0000
     12  C          8.3290   -0.4440   -2.3920 C.2     1  UNL1        0.0000
@<TRIPOS>BOND
     1    12    11    2
     2    12    10    1
     3    11     9    1
     4    10     8    2
     5     9     7    2
     6     8     7    1
     7     7     6    1
     8     1     6    1
     9     1     2    1
    10     2     3    2
    11     2     4    1
    12     5     4    1
