@<TRIPOS>MOLECULE
/home/cewinharhar/GITHUB/reincatalyze/data/processed/docking_pred/2023-Apr-25-2248_maxeplen10_maxtrainstep1000_exh16_gamma099_lrac3e-4_lrcr1e-3/306d1dfeb5e1085b4f3e24b09348dc81ae645662_ligand_2.pdbqt
 12 12 0 0 0
SMALL
GASTEIGER

@<TRIPOS>ATOM
      1  C          8.4070   -0.6410   -2.1360 C.3     1  UNL1        0.1270
      2  C          8.4060   -1.9050   -2.8930 C.2     1  UNL1        0.3030
      3  O          7.3030   -2.4180   -3.2270 O.2     1  UNL1       -0.2520
      4  O          9.5910   -2.5590   -3.2580 O.3     1  UNL1       -0.4810
      5  H          9.7490   -3.4990   -2.9200 H       1  UNL1        0.2960
      6  C          7.0450    0.0310   -2.1380 C.3     1  UNL1        0.0470
      7  C          6.4920    0.1180   -0.7620 C.2     1  UNL1       -0.0470
      8  C          6.6190   -0.9450    0.1210 C.2     1  UNL1        0.0040
      9  C          5.8240    1.2350   -0.2930 C.2     1  UNL1        0.0040
     10  C          6.1080   -0.8990    1.3980 C.2     1  UNL1        0.0000
     11  C          5.3140    1.2790    0.9870 C.2     1  UNL1        0.0000
     12  C          5.4420    0.2200    1.8560 C.2     1  UNL1        0.0000
@<TRIPOS>BOND
     1     4     5    1
     2     4     2    1
     3     3     2    2
     4     2     1    1
     5     6     1    1
     6     6     7    1
     7     7     9    2
     8     7     8    1
     9     9    11    1
    10     8    10    2
    11    11    12    2
    12    10    12    1
