@<TRIPOS>MOLECULE
/home/cewinharhar/GITHUB/reincatalyze/data/processed/docking_pred/2023-Apr-25-2248_maxeplen10_maxtrainstep1000_exh16_gamma099_lrac3e-4_lrcr1e-3/306d1dfeb5e1085b4f3e24b09348dc81ae645662_ligand_2.pdbqt
 12 12 0 0 0
SMALL
GASTEIGER

@<TRIPOS>ATOM
      1  C          8.5120    0.6730   -1.6590 C.3     1  UNL1        0.1270
      2  C          9.6640    0.2910   -0.8230 C.2     1  UNL1        0.3030
      3  O          9.4890   -0.5150    0.1310 O.2     1  UNL1       -0.2520
      4  O         10.9540    0.7930   -1.0520 O.3     1  UNL1       -0.4810
      5  H         11.0660    1.5550   -1.7080 H       1  UNL1        0.2960
      6  C          7.3190   -0.2390   -1.4420 C.3     1  UNL1        0.0470
      7  C          6.4230    0.2980   -0.3840 C.2     1  UNL1       -0.0470
      8  C          5.7910    1.5220   -0.5460 C.2     1  UNL1        0.0040
      9  C          6.1810   -0.3710    0.8020 C.2     1  UNL1        0.0040
     10  C          4.9650    2.0510    0.4180 C.2     1  UNL1        0.0000
     11  C          5.3530    0.1610    1.7670 C.2     1  UNL1        0.0000
     12  C          4.7300    1.3770    1.5990 C.2     1  UNL1        0.0000
@<TRIPOS>BOND
     1     5     4    1
     2     1     6    1
     3     1     2    1
     4     6     7    1
     5     4     2    1
     6     2     3    2
     7     8     7    2
     8     8    10    1
     9     7     9    1
    10    10    12    2
    11     9    11    2
    12    12    11    1
