@<TRIPOS>MOLECULE
/home/cewinharhar/GITHUB/reincatalyze/data/processed/docking_pred/2023-Apr-25-2248_maxeplen10_maxtrainstep1000_exh16_gamma099_lrac3e-4_lrcr1e-3/306d1dfeb5e1085b4f3e24b09348dc81ae645662_ligand_2.pdbqt
 12 12 0 0 0
SMALL
GASTEIGER

@<TRIPOS>ATOM
      1  C          8.2690   -1.7160    1.1920 C.3     1  UNL1        0.1270
      2  C          8.6690   -2.9450    0.4840 C.2     1  UNL1        0.3030
      3  O          9.4160   -3.7740    1.0710 O.2     1  UNL1       -0.2520
      4  O          8.2460   -3.2270   -0.8230 O.3     1  UNL1       -0.4810
      5  H          8.8490   -2.9690   -1.5920 H       1  UNL1        0.2960
      6  C          6.7650   -1.6270    1.3800 C.3     1  UNL1        0.0470
      7  C          6.2350   -0.3520    0.8300 C.2     1  UNL1       -0.0470
      8  C          5.4670    0.4940    1.6180 C.2     1  UNL1        0.0040
      9  C          6.4610    0.0530   -0.4720 C.2     1  UNL1        0.0040
     10  C          4.9530    1.6750    1.1360 C.2     1  UNL1        0.0000
     11  C          5.9460    1.2370   -0.9540 C.2     1  UNL1        0.0000
     12  C          5.1840    2.0700   -0.1670 C.2     1  UNL1        0.0000
@<TRIPOS>BOND
     1     5     4    1
     2    11     9    1
     3    11    12    2
     4     4     2    1
     5     9     7    2
     6    12    10    1
     7     2     3    2
     8     2     1    1
     9     7     6    1
    10     7     8    1
    11    10     8    2
    12     1     6    1
