@<TRIPOS>MOLECULE
/home/cewinharhar/GITHUB/reincatalyze/data/processed/docking_pred/2023-Apr-25-2248_maxeplen10_maxtrainstep1000_exh16_gamma099_lrac3e-4_lrcr1e-3/306d1dfeb5e1085b4f3e24b09348dc81ae645662_ligand_2.pdbqt
 12 12 0 0 0
SMALL
GASTEIGER

@<TRIPOS>ATOM
      1  C          8.4050   -0.6120   -2.2020 C.3     1  UNL1        0.1270
      2  C          8.4410   -1.8970   -2.9220 C.2     1  UNL1        0.3030
      3  O          9.5480   -2.4810   -3.0780 O.2     1  UNL1       -0.2520
      4  O          7.2840   -2.4960   -3.4420 O.3     1  UNL1       -0.4810
      5  H          6.4020   -2.0130   -3.3380 H       1  UNL1        0.2960
      6  C          7.0100   -0.0140   -2.1640 C.3     1  UNL1        0.0470
      7  C          6.4900    0.0350   -0.7720 C.2     1  UNL1       -0.0470
      8  C          5.8360    1.1640   -0.3010 C.2     1  UNL1        0.0040
      9  C          6.6310   -1.0150    0.1170 C.2     1  UNL1        0.0040
     10  C          5.3520    1.2450    0.9850 C.2     1  UNL1        0.0000
     11  C          6.1460   -0.9330    1.4050 C.2     1  UNL1        0.0000
     12  C          5.5000    0.1920    1.8660 C.2     1  UNL1        0.0000
@<TRIPOS>BOND
     1     4     5    1
     2     4     2    1
     3     3     2    2
     4     2     1    1
     5     1     6    1
     6     6     7    1
     7     7     8    2
     8     7     9    1
     9     8    10    1
    10     9    11    2
    11    10    12    2
    12    11    12    1
