MODEL 1
REMARK VINA RESULT:      -7.3      0.000      0.000
REMARK SMILES O=C(O)CCc1ccccc1
REMARK SMILES IDX 4 1 2 2 1 3 3 4 5 6 6 7 7 8 11 9 8 10 10 11 9 12
REMARK H PARENT 3 5
REMARK Flexibility Score: inf
ROOT
ATOM      1  C   UNL     1       8.405  -0.612  -2.202  1.00  0.00     0.127 C 
ENDROOT
BRANCH   1   2
ATOM      2  C   UNL     1       8.441  -1.897  -2.922  1.00  0.00     0.303 C 
ATOM      3  O   UNL     1       9.548  -2.481  -3.078  1.00  0.00    -0.252 OA
BRANCH   2   4
ATOM      4  O   UNL     1       7.284  -2.496  -3.442  1.00  0.00    -0.481 OA
ATOM      5  H   UNL     1       6.402  -2.013  -3.338  1.00  0.00     0.296 HD
ENDBRANCH   2   4
ENDBRANCH   1   2
BRANCH   1   6
ATOM      6  C   UNL     1       7.010  -0.014  -2.164  1.00  0.00     0.047 C 
BRANCH   6   7
ATOM      7  C   UNL     1       6.490   0.035  -0.772  1.00  0.00    -0.047 A 
ATOM      8  C   UNL     1       5.836   1.164  -0.301  1.00  0.00     0.004 A 
ATOM      9  C   UNL     1       6.631  -1.015   0.117  1.00  0.00     0.004 A 
ATOM     10  C   UNL     1       5.352   1.245   0.985  1.00  0.00     0.000 A 
ATOM     11  C   UNL     1       6.146  -0.933   1.405  1.00  0.00     0.000 A 
ATOM     12  C   UNL     1       5.500   0.192   1.866  1.00  0.00     0.000 A 
ENDBRANCH   6   7
ENDBRANCH   1   6
TORSDOF 4
ENDMDL
MODEL 2
REMARK VINA RESULT:      -7.3      0.109      1.723
REMARK SMILES O=C(O)CCc1ccccc1
REMARK SMILES IDX 4 1 2 2 1 3 3 4 5 6 6 7 7 8 11 9 8 10 10 11 9 12
REMARK H PARENT 3 5
REMARK Flexibility Score: inf
ROOT
ATOM      1  C   UNL     1       8.407  -0.641  -2.136  1.00  0.00     0.127 C 
ENDROOT
BRANCH   1   2
ATOM      2  C   UNL     1       8.406  -1.905  -2.893  1.00  0.00     0.303 C 
ATOM      3  O   UNL     1       7.303  -2.418  -3.227  1.00  0.00    -0.252 OA
BRANCH   2   4
ATOM      4  O   UNL     1       9.591  -2.559  -3.258  1.00  0.00    -0.481 OA
ATOM      5  H   UNL     1       9.749  -3.499  -2.920  1.00  0.00     0.296 HD
ENDBRANCH   2   4
ENDBRANCH   1   2
BRANCH   1   6
ATOM      6  C   UNL     1       7.045   0.031  -2.138  1.00  0.00     0.047 C 
BRANCH   6   7
ATOM      7  C   UNL     1       6.492   0.118  -0.762  1.00  0.00    -0.047 A 
ATOM      8  C   UNL     1       6.619  -0.945   0.121  1.00  0.00     0.004 A 
ATOM      9  C   UNL     1       5.824   1.235  -0.293  1.00  0.00     0.004 A 
ATOM     10  C   UNL     1       6.108  -0.899   1.398  1.00  0.00     0.000 A 
ATOM     11  C   UNL     1       5.314   1.279   0.987  1.00  0.00     0.000 A 
ATOM     12  C   UNL     1       5.442   0.220   1.856  1.00  0.00     0.000 A 
ENDBRANCH   6   7
ENDBRANCH   1   6
TORSDOF 4
ENDMDL
MODEL 3
REMARK VINA RESULT:      -6.8      3.403      5.076
REMARK SMILES O=C(O)CCc1ccccc1
REMARK SMILES IDX 4 1 2 2 1 3 3 4 5 6 6 7 7 8 11 9 8 10 10 11 9 12
REMARK H PARENT 3 5
REMARK Flexibility Score: inf
ROOT
ATOM      1  C   UNL     1       5.000   1.769   0.727  1.00  0.00     0.127 C 
ENDROOT
BRANCH   1   2
ATOM      2  C   UNL     1       4.469   1.105   1.931  1.00  0.00     0.303 C 
ATOM      3  O   UNL     1       5.152   0.200   2.483  1.00  0.00    -0.252 OA
BRANCH   2   4
ATOM      4  O   UNL     1       3.228   1.446   2.487  1.00  0.00    -0.481 OA
ATOM      5  H   UNL     1       2.387   1.181   1.992  1.00  0.00     0.296 HD
ENDBRANCH   2   4
ENDBRANCH   1   2
BRANCH   1   6
ATOM      6  C   UNL     1       6.514   1.876   0.752  1.00  0.00     0.047 C 
BRANCH   6   7
ATOM      7  C   UNL     1       7.124   1.061  -0.332  1.00  0.00    -0.047 A 
ATOM      8  C   UNL     1       8.466   1.203  -0.654  1.00  0.00     0.004 A 
ATOM      9  C   UNL     1       6.404   0.142  -1.072  1.00  0.00     0.004 A 
ATOM     10  C   UNL     1       9.057   0.471  -1.659  1.00  0.00     0.000 A 
ATOM     11  C   UNL     1       6.997  -0.591  -2.077  1.00  0.00     0.000 A 
ATOM     12  C   UNL     1       8.329  -0.444  -2.392  1.00  0.00     0.000 A 
ENDBRANCH   6   7
ENDBRANCH   1   6
TORSDOF 4
ENDMDL
MODEL 4
REMARK VINA RESULT:      -6.5      2.077      2.414
REMARK SMILES O=C(O)CCc1ccccc1
REMARK SMILES IDX 4 1 2 2 1 3 3 4 5 6 6 7 7 8 11 9 8 10 10 11 9 12
REMARK H PARENT 3 5
REMARK Flexibility Score: inf
ROOT
ATOM      1  C   UNL     1       8.512   0.673  -1.659  1.00  0.00     0.127 C 
ENDROOT
BRANCH   1   2
ATOM      2  C   UNL     1       9.664   0.291  -0.823  1.00  0.00     0.303 C 
ATOM      3  O   UNL     1       9.489  -0.515   0.131  1.00  0.00    -0.252 OA
BRANCH   2   4
ATOM      4  O   UNL     1      10.954   0.793  -1.052  1.00  0.00    -0.481 OA
ATOM      5  H   UNL     1      11.066   1.555  -1.708  1.00  0.00     0.296 HD
ENDBRANCH   2   4
ENDBRANCH   1   2
BRANCH   1   6
ATOM      6  C   UNL     1       7.319  -0.239  -1.442  1.00  0.00     0.047 C 
BRANCH   6   7
ATOM      7  C   UNL     1       6.423   0.298  -0.384  1.00  0.00    -0.047 A 
ATOM      8  C   UNL     1       5.791   1.522  -0.546  1.00  0.00     0.004 A 
ATOM      9  C   UNL     1       6.181  -0.371   0.802  1.00  0.00     0.004 A 
ATOM     10  C   UNL     1       4.965   2.051   0.418  1.00  0.00     0.000 A 
ATOM     11  C   UNL     1       5.353   0.161   1.767  1.00  0.00     0.000 A 
ATOM     12  C   UNL     1       4.730   1.377   1.599  1.00  0.00     0.000 A 
ENDBRANCH   6   7
ENDBRANCH   1   6
TORSDOF 4
ENDMDL
MODEL 5
REMARK VINA RESULT:      -6.5      1.964      2.938
REMARK SMILES O=C(O)CCc1ccccc1
REMARK SMILES IDX 4 1 2 2 1 3 3 4 5 6 6 7 7 8 11 9 8 10 10 11 9 12
REMARK H PARENT 3 5
REMARK Flexibility Score: inf
ROOT
ATOM      1  C   UNL     1       8.269  -1.716   1.192  1.00  0.00     0.127 C 
ENDROOT
BRANCH   1   2
ATOM      2  C   UNL     1       8.669  -2.945   0.484  1.00  0.00     0.303 C 
ATOM      3  O   UNL     1       9.416  -3.774   1.071  1.00  0.00    -0.252 OA
BRANCH   2   4
ATOM      4  O   UNL     1       8.246  -3.227  -0.823  1.00  0.00    -0.481 OA
ATOM      5  H   UNL     1       8.849  -2.969  -1.592  1.00  0.00     0.296 HD
ENDBRANCH   2   4
ENDBRANCH   1   2
BRANCH   1   6
ATOM      6  C   UNL     1       6.765  -1.627   1.380  1.00  0.00     0.047 C 
BRANCH   6   7
ATOM      7  C   UNL     1       6.235  -0.352   0.830  1.00  0.00    -0.047 A 
ATOM      8  C   UNL     1       5.467   0.494   1.618  1.00  0.00     0.004 A 
ATOM      9  C   UNL     1       6.461   0.053  -0.472  1.00  0.00     0.004 A 
ATOM     10  C   UNL     1       4.953   1.675   1.136  1.00  0.00     0.000 A 
ATOM     11  C   UNL     1       5.946   1.237  -0.954  1.00  0.00     0.000 A 
ATOM     12  C   UNL     1       5.184   2.070  -0.167  1.00  0.00     0.000 A 
ENDBRANCH   6   7
ENDBRANCH   1   6
TORSDOF 4
ENDMDL
