@<TRIPOS>MOLECULE
/home/cewinharhar/GITHUB/reincatalyze/data/processed/docking_pred/2023-Apr-25-2248_maxeplen10_maxtrainstep1000_exh16_gamma099_lrac3e-4_lrcr1e-3/31018d4d3337f577513d0037205f1d699057d88b_ligand_2.pdbqt
 12 12 0 0 0
SMALL
GASTEIGER

@<TRIPOS>ATOM
      1  C          8.2680   -1.2520   -2.0340 C.3     1  UNL1        0.1270
      2  C          8.9410    0.0580   -2.0360 C.2     1  UNL1        0.3030
      3  O          8.4200    1.0140   -2.6730 O.2     1  UNL1       -0.2520
      4  O         10.1440    0.2820   -1.3510 O.3     1  UNL1       -0.4810
      5  H         10.1130    0.4140   -0.3490 H       1  UNL1        0.2960
      6  C          6.7880   -1.1370   -1.7130 C.3     1  UNL1        0.0470
      7  C          6.5740   -0.9300   -0.2570 C.2     1  UNL1       -0.0470
      8  C          7.0910   -1.8250    0.6680 C.2     1  UNL1        0.0040
      9  C          5.8540    0.1360    0.2490 C.2     1  UNL1        0.0040
     10  C          6.9010   -1.6680    2.0220 C.2     1  UNL1        0.0000
     11  C          5.6640    0.2920    1.6060 C.2     1  UNL1        0.0000
     12  C          6.1790   -0.6000    2.5180 C.2     1  UNL1        0.0000
@<TRIPOS>BOND
     1     3     2    2
     2     2     1    1
     3     2     4    1
     4     1     6    1
     5     6     7    1
     6     4     5    1
     7     7     9    2
     8     7     8    1
     9     9    11    1
    10     8    10    2
    11    11    12    2
    12    10    12    1
