@<TRIPOS>MOLECULE
/home/cewinharhar/GITHUB/reincatalyze/data/processed/docking_pred/2023-Apr-25-2248_maxeplen10_maxtrainstep1000_exh16_gamma099_lrac3e-4_lrcr1e-3/31018d4d3337f577513d0037205f1d699057d88b_ligand_2.pdbqt
 12 12 0 0 0
SMALL
GASTEIGER

@<TRIPOS>ATOM
      1  C          8.3050   -0.7920   -2.1100 C.3     1  UNL1        0.1270
      2  C          8.4180   -2.0040   -2.9400 C.2     1  UNL1        0.3030
      3  O          9.5530   -2.5260   -3.1110 O.2     1  UNL1       -0.2520
      4  O          7.3030   -2.6010   -3.5460 O.3     1  UNL1       -0.4810
      5  H          6.6040   -3.0310   -2.9560 H       1  UNL1        0.2960
      6  C          6.8660   -0.4810   -1.7400 C.3     1  UNL1        0.0470
      7  C          6.6440   -0.6460   -0.2800 C.2     1  UNL1       -0.0470
      8  C          5.8360    0.2410    0.4180 C.2     1  UNL1        0.0040
      9  C          7.2230   -1.6640    0.4550 C.2     1  UNL1        0.0040
     10  C          5.6190    0.1210    1.7710 C.2     1  UNL1        0.0000
     11  C          7.0040   -1.7830    1.8110 C.2     1  UNL1        0.0000
     12  C          6.2030   -0.8990    2.4960 C.2     1  UNL1        0.0000
@<TRIPOS>BOND
     1     4     5    1
     2     4     2    1
     3     3     2    2
     4     2     1    1
     5     1     6    1
     6     6     7    1
     7     7     8    2
     8     7     9    1
     9     8    10    1
    10     9    11    2
    11    10    12    2
    12    11    12    1
