@<TRIPOS>MOLECULE
/home/cewinharhar/GITHUB/reincatalyze/data/processed/docking_pred/2023-Apr-25-2248_maxeplen10_maxtrainstep1000_exh16_gamma099_lrac3e-4_lrcr1e-3/31018d4d3337f577513d0037205f1d699057d88b_ligand_2.pdbqt
 12 12 0 0 0
SMALL
GASTEIGER

@<TRIPOS>ATOM
      1  C          5.1080   -0.0760    2.0180 C.3     1  UNL1        0.1270
      2  C          4.3790    1.2040    1.9720 C.2     1  UNL1        0.3030
      3  O          4.8750    2.1690    1.3280 O.2     1  UNL1       -0.2520
      4  O          3.1480    1.3870    2.6190 O.3     1  UNL1       -0.4810
      5  H          2.2980    1.2110    2.1010 H       1  UNL1        0.2960
      6  C          6.5980    0.1050    1.7910 C.3     1  UNL1        0.0470
      7  C          7.0580   -0.6860    0.6190 C.2     1  UNL1       -0.0470
      8  C          6.6660   -0.3390   -0.6660 C.2     1  UNL1        0.0040
      9  C          7.8770   -1.7930    0.7390 C.2     1  UNL1        0.0040
     10  C          7.0660   -1.0570   -1.7700 C.2     1  UNL1        0.0000
     11  C          8.2770   -2.5110   -0.3680 C.2     1  UNL1        0.0000
     12  C          7.8830   -2.1620   -1.6400 C.2     1  UNL1        0.0000
@<TRIPOS>BOND
     1    10    12    2
     2    10     8    1
     3    12    11    1
     4     8     7    2
     5    11     9    2
     6     7     9    1
     7     7     6    1
     8     3     2    2
     9     6     1    1
    10     2     1    1
    11     2     4    1
    12     5     4    1
