@<TRIPOS>MOLECULE
/home/cewinharhar/GITHUB/reincatalyze/data/processed/docking_pred/2023-Apr-25-2248_maxeplen10_maxtrainstep1000_exh16_gamma099_lrac3e-4_lrcr1e-3/31018d4d3337f577513d0037205f1d699057d88b_ligand_2.pdbqt
 12 12 0 0 0
SMALL
GASTEIGER

@<TRIPOS>ATOM
      1  C          5.8650   -0.8900    1.7490 C.3     1  UNL1        0.1270
      2  C          5.3220    0.4470    2.0480 C.2     1  UNL1        0.3030
      3  O          4.1480    0.5450    2.4980 O.2     1  UNL1       -0.2520
      4  O          6.0680    1.6180    1.8510 O.3     1  UNL1       -0.4810
      5  H          5.5740    2.4790    1.6580 H       1  UNL1        0.2960
      6  C          7.3640   -0.8610    1.5140 C.3     1  UNL1        0.0470
      7  C          7.6740   -0.7250    0.0660 C.2     1  UNL1       -0.0470
      8  C          8.8080   -0.0440   -0.3540 C.2     1  UNL1        0.0040
      9  C          6.8640   -1.2490   -0.9250 C.2     1  UNL1        0.0040
     10  C          9.1170    0.1080   -1.6860 C.2     1  UNL1        0.0000
     11  C          7.1750   -1.0960   -2.2590 C.2     1  UNL1        0.0000
     12  C          8.3010   -0.4180   -2.6680 C.2     1  UNL1        0.0000
@<TRIPOS>BOND
     1    12    11    2
     2    12    10    1
     3    11     9    1
     4    10     8    2
     5     9     7    2
     6     8     7    1
     7     7     6    1
     8     6     1    1
     9     5     4    1
    10     1     2    1
    11     4     2    1
    12     2     3    2
