@<TRIPOS>MOLECULE
/home/cewinharhar/GITHUB/reincatalyze/data/processed/docking_pred/2023-Apr-25-2248_maxeplen10_maxtrainstep1000_exh16_gamma099_lrac3e-4_lrcr1e-3/31018d4d3337f577513d0037205f1d699057d88b_ligand_2.pdbqt
 12 12 0 0 0
SMALL
GASTEIGER

@<TRIPOS>ATOM
      1  C          8.2920   -0.7910   -2.1110 C.3     1  UNL1        0.1270
      2  C          8.4120   -2.0060   -2.9370 C.2     1  UNL1        0.3030
      3  O          9.5490   -2.5260   -3.0990 O.2     1  UNL1       -0.2520
      4  O          7.3030   -2.6060   -3.5510 O.3     1  UNL1       -0.4810
      5  H          7.1630   -2.4630   -4.5420 H       1  UNL1        0.2960
      6  C          6.8490   -0.4850   -1.7490 C.3     1  UNL1        0.0470
      7  C          6.6270   -0.6210   -0.2860 C.2     1  UNL1       -0.0470
      8  C          7.2180   -1.6540    0.4270 C.2     1  UNL1        0.0040
      9  C          5.8280    0.2480    0.4340 C.2     1  UNL1        0.0040
     10  C          7.0240   -1.8130    1.7800 C.2     1  UNL1        0.0000
     11  C          5.6340    0.0880    1.7890 C.2     1  UNL1        0.0000
     12  C          6.2230   -0.9410    2.4890 C.2     1  UNL1        0.0000
@<TRIPOS>BOND
     1     5     4    1
     2     4     2    1
     3     3     2    2
     4     2     1    1
     5     1     6    1
     6     6     7    1
     7     7     8    2
     8     7     9    1
     9     8    10    1
    10     9    11    2
    11    10    12    2
    12    11    12    1
