MODEL 1
REMARK VINA RESULT:      -6.4      0.000      0.000
REMARK SMILES O=C(O)CCc1ccccc1
REMARK SMILES IDX 4 1 2 2 1 3 3 4 5 6 6 7 7 8 11 9 8 10 10 11 9 12
REMARK H PARENT 3 5
REMARK Flexibility Score: inf
ROOT
ATOM      1  C   UNL     1       8.305  -0.792  -2.110  1.00  0.00     0.127 C 
ENDROOT
BRANCH   1   2
ATOM      2  C   UNL     1       8.418  -2.004  -2.940  1.00  0.00     0.303 C 
ATOM      3  O   UNL     1       9.553  -2.526  -3.111  1.00  0.00    -0.252 OA
BRANCH   2   4
ATOM      4  O   UNL     1       7.303  -2.601  -3.546  1.00  0.00    -0.481 OA
ATOM      5  H   UNL     1       6.604  -3.031  -2.956  1.00  0.00     0.296 HD
ENDBRANCH   2   4
ENDBRANCH   1   2
BRANCH   1   6
ATOM      6  C   UNL     1       6.866  -0.481  -1.740  1.00  0.00     0.047 C 
BRANCH   6   7
ATOM      7  C   UNL     1       6.644  -0.646  -0.280  1.00  0.00    -0.047 A 
ATOM      8  C   UNL     1       5.836   0.241   0.418  1.00  0.00     0.004 A 
ATOM      9  C   UNL     1       7.223  -1.664   0.455  1.00  0.00     0.004 A 
ATOM     10  C   UNL     1       5.619   0.121   1.771  1.00  0.00     0.000 A 
ATOM     11  C   UNL     1       7.004  -1.783   1.811  1.00  0.00     0.000 A 
ATOM     12  C   UNL     1       6.203  -0.899   2.496  1.00  0.00     0.000 A 
ENDBRANCH   6   7
ENDBRANCH   1   6
TORSDOF 4
ENDMDL
MODEL 2
REMARK VINA RESULT:      -6.4      0.029      1.421
REMARK SMILES O=C(O)CCc1ccccc1
REMARK SMILES IDX 4 1 2 2 1 3 3 4 5 6 6 7 7 8 11 9 8 10 10 11 9 12
REMARK H PARENT 3 5
REMARK Flexibility Score: inf
ROOT
ATOM      1  C   UNL     1       8.292  -0.791  -2.111  1.00  0.00     0.127 C 
ENDROOT
BRANCH   1   2
ATOM      2  C   UNL     1       8.412  -2.006  -2.937  1.00  0.00     0.303 C 
ATOM      3  O   UNL     1       9.549  -2.526  -3.099  1.00  0.00    -0.252 OA
BRANCH   2   4
ATOM      4  O   UNL     1       7.303  -2.606  -3.551  1.00  0.00    -0.481 OA
ATOM      5  H   UNL     1       7.163  -2.463  -4.542  1.00  0.00     0.296 HD
ENDBRANCH   2   4
ENDBRANCH   1   2
BRANCH   1   6
ATOM      6  C   UNL     1       6.849  -0.485  -1.749  1.00  0.00     0.047 C 
BRANCH   6   7
ATOM      7  C   UNL     1       6.627  -0.621  -0.286  1.00  0.00    -0.047 A 
ATOM      8  C   UNL     1       7.218  -1.654   0.427  1.00  0.00     0.004 A 
ATOM      9  C   UNL     1       5.828   0.248   0.434  1.00  0.00     0.004 A 
ATOM     10  C   UNL     1       7.024  -1.813   1.780  1.00  0.00     0.000 A 
ATOM     11  C   UNL     1       5.634   0.088   1.789  1.00  0.00     0.000 A 
ATOM     12  C   UNL     1       6.223  -0.941   2.489  1.00  0.00     0.000 A 
ENDBRANCH   6   7
ENDBRANCH   1   6
TORSDOF 4
ENDMDL
MODEL 3
REMARK VINA RESULT:      -6.3      3.242      5.012
REMARK SMILES O=C(O)CCc1ccccc1
REMARK SMILES IDX 4 1 2 2 1 3 3 4 5 6 6 7 7 8 11 9 8 10 10 11 9 12
REMARK H PARENT 3 5
REMARK Flexibility Score: inf
ROOT
ATOM      1  C   UNL     1       5.865  -0.890   1.749  1.00  0.00     0.127 C 
ENDROOT
BRANCH   1   2
ATOM      2  C   UNL     1       5.322   0.447   2.048  1.00  0.00     0.303 C 
ATOM      3  O   UNL     1       4.148   0.545   2.498  1.00  0.00    -0.252 OA
BRANCH   2   4
ATOM      4  O   UNL     1       6.068   1.618   1.851  1.00  0.00    -0.481 OA
ATOM      5  H   UNL     1       5.574   2.479   1.658  1.00  0.00     0.296 HD
ENDBRANCH   2   4
ENDBRANCH   1   2
BRANCH   1   6
ATOM      6  C   UNL     1       7.364  -0.861   1.514  1.00  0.00     0.047 C 
BRANCH   6   7
ATOM      7  C   UNL     1       7.674  -0.725   0.066  1.00  0.00    -0.047 A 
ATOM      8  C   UNL     1       8.808  -0.044  -0.354  1.00  0.00     0.004 A 
ATOM      9  C   UNL     1       6.864  -1.249  -0.925  1.00  0.00     0.004 A 
ATOM     10  C   UNL     1       9.117   0.108  -1.686  1.00  0.00     0.000 A 
ATOM     11  C   UNL     1       7.175  -1.096  -2.259  1.00  0.00     0.000 A 
ATOM     12  C   UNL     1       8.301  -0.418  -2.668  1.00  0.00     0.000 A 
ENDBRANCH   6   7
ENDBRANCH   1   6
TORSDOF 4
ENDMDL
MODEL 4
REMARK VINA RESULT:      -6.2      3.494      4.994
REMARK SMILES O=C(O)CCc1ccccc1
REMARK SMILES IDX 4 1 2 2 1 3 3 4 5 6 6 7 7 8 11 9 8 10 10 11 9 12
REMARK H PARENT 3 5
REMARK Flexibility Score: inf
ROOT
ATOM      1  C   UNL     1       5.108  -0.076   2.018  1.00  0.00     0.127 C 
ENDROOT
BRANCH   1   2
ATOM      2  C   UNL     1       4.379   1.204   1.972  1.00  0.00     0.303 C 
ATOM      3  O   UNL     1       4.875   2.169   1.328  1.00  0.00    -0.252 OA
BRANCH   2   4
ATOM      4  O   UNL     1       3.148   1.387   2.619  1.00  0.00    -0.481 OA
ATOM      5  H   UNL     1       2.298   1.211   2.101  1.00  0.00     0.296 HD
ENDBRANCH   2   4
ENDBRANCH   1   2
BRANCH   1   6
ATOM      6  C   UNL     1       6.598   0.105   1.791  1.00  0.00     0.047 C 
BRANCH   6   7
ATOM      7  C   UNL     1       7.058  -0.686   0.619  1.00  0.00    -0.047 A 
ATOM      8  C   UNL     1       6.666  -0.339  -0.666  1.00  0.00     0.004 A 
ATOM      9  C   UNL     1       7.877  -1.793   0.739  1.00  0.00     0.004 A 
ATOM     10  C   UNL     1       7.066  -1.057  -1.770  1.00  0.00     0.000 A 
ATOM     11  C   UNL     1       8.277  -2.511  -0.368  1.00  0.00     0.000 A 
ATOM     12  C   UNL     1       7.883  -2.162  -1.640  1.00  0.00     0.000 A 
ENDBRANCH   6   7
ENDBRANCH   1   6
TORSDOF 4
ENDMDL
MODEL 5
REMARK VINA RESULT:      -5.8      1.621      2.403
REMARK SMILES O=C(O)CCc1ccccc1
REMARK SMILES IDX 4 1 2 2 1 3 3 4 5 6 6 7 7 8 11 9 8 10 10 11 9 12
REMARK H PARENT 3 5
REMARK Flexibility Score: inf
ROOT
ATOM      1  C   UNL     1       8.268  -1.252  -2.034  1.00  0.00     0.127 C 
ENDROOT
BRANCH   1   2
ATOM      2  C   UNL     1       8.941   0.058  -2.036  1.00  0.00     0.303 C 
ATOM      3  O   UNL     1       8.420   1.014  -2.673  1.00  0.00    -0.252 OA
BRANCH   2   4
ATOM      4  O   UNL     1      10.144   0.282  -1.351  1.00  0.00    -0.481 OA
ATOM      5  H   UNL     1      10.113   0.414  -0.349  1.00  0.00     0.296 HD
ENDBRANCH   2   4
ENDBRANCH   1   2
BRANCH   1   6
ATOM      6  C   UNL     1       6.788  -1.137  -1.713  1.00  0.00     0.047 C 
BRANCH   6   7
ATOM      7  C   UNL     1       6.574  -0.930  -0.257  1.00  0.00    -0.047 A 
ATOM      8  C   UNL     1       7.091  -1.825   0.668  1.00  0.00     0.004 A 
ATOM      9  C   UNL     1       5.854   0.136   0.249  1.00  0.00     0.004 A 
ATOM     10  C   UNL     1       6.901  -1.668   2.022  1.00  0.00     0.000 A 
ATOM     11  C   UNL     1       5.664   0.292   1.606  1.00  0.00     0.000 A 
ATOM     12  C   UNL     1       6.179  -0.600   2.518  1.00  0.00     0.000 A 
ENDBRANCH   6   7
ENDBRANCH   1   6
TORSDOF 4
ENDMDL
