@<TRIPOS>MOLECULE
/home/cewinharhar/GITHUB/reincatalyze/data/processed/docking_pred/2023-Apr-25-2248_maxeplen10_maxtrainstep1000_exh16_gamma099_lrac3e-4_lrcr1e-3/3109bb1a4c888d48ff6ee722b945383cff227a99_ligand_2.pdbqt
 12 12 0 0 0
SMALL
GASTEIGER

@<TRIPOS>ATOM
      1  C          4.9930    1.7970    0.7040 C.3     1  UNL1        0.1270
      2  C          4.4740    1.1260    1.9090 C.2     1  UNL1        0.3030
      3  O          5.1680    0.2260    2.4550 O.2     1  UNL1       -0.2520
      4  O          3.2330    1.4560    2.4730 O.3     1  UNL1       -0.4810
      5  H          2.5600    0.7170    2.6260 H       1  UNL1        0.2960
      6  C          6.5070    1.9160    0.7200 C.3     1  UNL1        0.0470
      7  C          7.1170    1.0880   -0.3530 C.2     1  UNL1       -0.0470
      8  C          8.4680    1.1960   -0.6480 C.2     1  UNL1        0.0040
      9  C          6.3890    0.1890   -1.1100 C.2     1  UNL1        0.0040
     10  C          9.0610    0.4510   -1.6420 C.2     1  UNL1        0.0000
     11  C          6.9840   -0.5560   -2.1060 C.2     1  UNL1        0.0000
     12  C          8.3250   -0.4420   -2.3930 C.2     1  UNL1        0.0000
@<TRIPOS>BOND
     1    12    11    2
     2    12    10    1
     3    11     9    1
     4    10     8    2
     5     9     7    2
     6     8     7    1
     7     7     6    1
     8     1     6    1
     9     1     2    1
    10     2     3    2
    11     2     4    1
    12     4     5    1
