@<TRIPOS>MOLECULE
/home/cewinharhar/GITHUB/reincatalyze/data/processed/docking_pred/2023-Apr-25-2248_maxeplen10_maxtrainstep1000_exh16_gamma099_lrac3e-4_lrcr1e-3/3109bb1a4c888d48ff6ee722b945383cff227a99_ligand_2.pdbqt
 12 12 0 0 0
SMALL
GASTEIGER

@<TRIPOS>ATOM
      1  C          8.3010   -0.9580   -1.8220 C.3     1  UNL1        0.1270
      2  C          8.3700   -2.0250   -2.8370 C.2     1  UNL1        0.3030
      3  O          7.2990   -2.4670   -3.3340 O.2     1  UNL1       -0.2520
      4  O          9.5880   -2.5660   -3.2710 O.3     1  UNL1       -0.4810
      5  H         10.3880   -1.9530   -3.3520 H       1  UNL1        0.2960
      6  C          7.5900   -1.4120   -0.5600 C.3     1  UNL1        0.0470
      7  C          6.6870   -0.3490   -0.0460 C.2     1  UNL1       -0.0470
      8  C          6.1620   -0.4260    1.2370 C.2     1  UNL1        0.0040
      9  C          6.3180    0.7490   -0.8010 C.2     1  UNL1        0.0040
     10  C          5.3160    0.5360    1.7380 C.2     1  UNL1        0.0000
     11  C          5.4700    1.7120   -0.2970 C.2     1  UNL1        0.0000
     12  C          4.9520    1.6280    0.9760 C.2     1  UNL1        0.0000
@<TRIPOS>BOND
     1     5     4    1
     2     3     2    2
     3     4     2    1
     4     2     1    1
     5     1     6    1
     6     9    11    1
     7     9     7    2
     8     6     7    1
     9    11    12    2
    10     7     8    1
    11    12    10    1
    12     8    10    2
