MODEL 1
REMARK VINA RESULT:      -7.3      0.000      0.000
REMARK SMILES O=C(O)CCc1ccccc1
REMARK SMILES IDX 4 1 2 2 1 3 3 4 5 6 6 7 7 8 11 9 8 10 10 11 9 12
REMARK H PARENT 3 5
REMARK Flexibility Score: inf
ROOT
ATOM      1  C   UNL     1       8.416  -0.684  -2.089  1.00  0.00     0.127 C 
ENDROOT
BRANCH   1   2
ATOM      2  C   UNL     1       8.437  -1.923  -2.886  1.00  0.00     0.303 C 
ATOM      3  O   UNL     1       9.538  -2.505  -3.086  1.00  0.00    -0.252 OA
BRANCH   2   4
ATOM      4  O   UNL     1       7.271  -2.481  -3.431  1.00  0.00    -0.481 OA
ATOM      5  H   UNL     1       6.384  -2.268  -2.996  1.00  0.00     0.296 HD
ENDBRANCH   2   4
ENDBRANCH   1   2
BRANCH   1   6
ATOM      6  C   UNL     1       7.060  -0.002  -2.123  1.00  0.00     0.047 C 
BRANCH   6   7
ATOM      7  C   UNL     1       6.489   0.114  -0.755  1.00  0.00    -0.047 A 
ATOM      8  C   UNL     1       6.603  -0.930   0.151  1.00  0.00     0.004 A 
ATOM      9  C   UNL     1       5.816   1.241  -0.319  1.00  0.00     0.004 A 
ATOM     10  C   UNL     1       6.076  -0.857   1.420  1.00  0.00     0.000 A 
ATOM     11  C   UNL     1       5.289   1.312   0.952  1.00  0.00     0.000 A 
ATOM     12  C   UNL     1       5.405   0.272   1.845  1.00  0.00     0.000 A 
ENDBRANCH   6   7
ENDBRANCH   1   6
TORSDOF 4
ENDMDL
MODEL 2
REMARK VINA RESULT:      -7.3      0.088      1.723
REMARK SMILES O=C(O)CCc1ccccc1
REMARK SMILES IDX 4 1 2 2 1 3 3 4 5 6 6 7 7 8 11 9 8 10 10 11 9 12
REMARK H PARENT 3 5
REMARK Flexibility Score: inf
ROOT
ATOM      1  C   UNL     1       8.400  -0.687  -2.086  1.00  0.00     0.127 C 
ENDROOT
BRANCH   1   2
ATOM      2  C   UNL     1       8.393  -1.926  -2.883  1.00  0.00     0.303 C 
ATOM      3  O   UNL     1       7.288  -2.412  -3.249  1.00  0.00    -0.252 OA
BRANCH   2   4
ATOM      4  O   UNL     1       9.574  -2.586  -3.250  1.00  0.00    -0.481 OA
ATOM      5  H   UNL     1       9.530  -3.290  -3.974  1.00  0.00     0.296 HD
ENDBRANCH   2   4
ENDBRANCH   1   2
BRANCH   1   6
ATOM      6  C   UNL     1       7.053   0.013  -2.101  1.00  0.00     0.047 C 
BRANCH   6   7
ATOM      7  C   UNL     1       6.479   0.095  -0.733  1.00  0.00    -0.047 A 
ATOM      8  C   UNL     1       5.800   1.231  -0.317  1.00  0.00     0.004 A 
ATOM      9  C   UNL     1       6.595  -0.928   0.190  1.00  0.00     0.004 A 
ATOM     10  C   UNL     1       5.266   1.342   0.947  1.00  0.00     0.000 A 
ATOM     11  C   UNL     1       6.060  -0.816   1.455  1.00  0.00     0.000 A 
ATOM     12  C   UNL     1       5.388   0.315   1.861  1.00  0.00     0.000 A 
ENDBRANCH   6   7
ENDBRANCH   1   6
TORSDOF 4
ENDMDL
MODEL 3
REMARK VINA RESULT:      -7.1      0.637      1.527
REMARK SMILES O=C(O)CCc1ccccc1
REMARK SMILES IDX 4 1 2 2 1 3 3 4 5 6 6 7 7 8 11 9 8 10 10 11 9 12
REMARK H PARENT 3 5
REMARK Flexibility Score: inf
ROOT
ATOM      1  C   UNL     1       8.301  -0.958  -1.822  1.00  0.00     0.127 C 
ENDROOT
BRANCH   1   2
ATOM      2  C   UNL     1       8.370  -2.025  -2.837  1.00  0.00     0.303 C 
ATOM      3  O   UNL     1       7.299  -2.467  -3.334  1.00  0.00    -0.252 OA
BRANCH   2   4
ATOM      4  O   UNL     1       9.588  -2.566  -3.271  1.00  0.00    -0.481 OA
ATOM      5  H   UNL     1      10.388  -1.953  -3.352  1.00  0.00     0.296 HD
ENDBRANCH   2   4
ENDBRANCH   1   2
BRANCH   1   6
ATOM      6  C   UNL     1       7.590  -1.412  -0.560  1.00  0.00     0.047 C 
BRANCH   6   7
ATOM      7  C   UNL     1       6.687  -0.349  -0.046  1.00  0.00    -0.047 A 
ATOM      8  C   UNL     1       6.162  -0.426   1.237  1.00  0.00     0.004 A 
ATOM      9  C   UNL     1       6.318   0.749  -0.801  1.00  0.00     0.004 A 
ATOM     10  C   UNL     1       5.316   0.536   1.738  1.00  0.00     0.000 A 
ATOM     11  C   UNL     1       5.470   1.712  -0.297  1.00  0.00     0.000 A 
ATOM     12  C   UNL     1       4.952   1.628   0.976  1.00  0.00     0.000 A 
ENDBRANCH   6   7
ENDBRANCH   1   6
TORSDOF 4
ENDMDL
MODEL 4
REMARK VINA RESULT:      -6.8      3.385      5.086
REMARK SMILES O=C(O)CCc1ccccc1
REMARK SMILES IDX 4 1 2 2 1 3 3 4 5 6 6 7 7 8 11 9 8 10 10 11 9 12
REMARK H PARENT 3 5
REMARK Flexibility Score: inf
ROOT
ATOM      1  C   UNL     1       4.993   1.797   0.704  1.00  0.00     0.127 C 
ENDROOT
BRANCH   1   2
ATOM      2  C   UNL     1       4.474   1.126   1.909  1.00  0.00     0.303 C 
ATOM      3  O   UNL     1       5.168   0.226   2.455  1.00  0.00    -0.252 OA
BRANCH   2   4
ATOM      4  O   UNL     1       3.233   1.456   2.473  1.00  0.00    -0.481 OA
ATOM      5  H   UNL     1       2.560   0.717   2.626  1.00  0.00     0.296 HD
ENDBRANCH   2   4
ENDBRANCH   1   2
BRANCH   1   6
ATOM      6  C   UNL     1       6.507   1.916   0.720  1.00  0.00     0.047 C 
BRANCH   6   7
ATOM      7  C   UNL     1       7.117   1.088  -0.353  1.00  0.00    -0.047 A 
ATOM      8  C   UNL     1       8.468   1.196  -0.648  1.00  0.00     0.004 A 
ATOM      9  C   UNL     1       6.389   0.189  -1.110  1.00  0.00     0.004 A 
ATOM     10  C   UNL     1       9.061   0.451  -1.642  1.00  0.00     0.000 A 
ATOM     11  C   UNL     1       6.984  -0.556  -2.106  1.00  0.00     0.000 A 
ATOM     12  C   UNL     1       8.325  -0.442  -2.393  1.00  0.00     0.000 A 
ENDBRANCH   6   7
ENDBRANCH   1   6
TORSDOF 4
ENDMDL
MODEL 5
REMARK VINA RESULT:      -6.6      1.961      2.355
REMARK SMILES O=C(O)CCc1ccccc1
REMARK SMILES IDX 4 1 2 2 1 3 3 4 5 6 6 7 7 8 11 9 8 10 10 11 9 12
REMARK H PARENT 3 5
REMARK Flexibility Score: inf
ROOT
ATOM      1  C   UNL     1       8.315   0.237  -2.163  1.00  0.00     0.127 C 
ENDROOT
BRANCH   1   2
ATOM      2  C   UNL     1       9.430   0.382  -1.210  1.00  0.00     0.303 C 
ATOM      3  O   UNL     1       9.485  -0.385  -0.210  1.00  0.00    -0.252 OA
BRANCH   2   4
ATOM      4  O   UNL     1      10.436   1.344  -1.376  1.00  0.00    -0.481 OA
ATOM      5  H   UNL     1      11.331   1.191  -0.931  1.00  0.00     0.296 HD
ENDBRANCH   2   4
ENDBRANCH   1   2
BRANCH   1   6
ATOM      6  C   UNL     1       7.164  -0.564  -1.581  1.00  0.00     0.047 C 
BRANCH   6   7
ATOM      7  C   UNL     1       6.373   0.256  -0.627  1.00  0.00    -0.047 A 
ATOM      8  C   UNL     1       6.149  -0.185   0.669  1.00  0.00     0.004 A 
ATOM      9  C   UNL     1       5.817   1.476  -0.970  1.00  0.00     0.004 A 
ATOM     10  C   UNL     1       5.412   0.546   1.573  1.00  0.00     0.000 A 
ATOM     11  C   UNL     1       5.080   2.207  -0.064  1.00  0.00     0.000 A 
ATOM     12  C   UNL     1       4.861   1.761   1.220  1.00  0.00     0.000 A 
ENDBRANCH   6   7
ENDBRANCH   1   6
TORSDOF 4
ENDMDL
