@<TRIPOS>MOLECULE
/home/cewinharhar/GITHUB/reincatalyze/data/processed/docking_pred/2023-Apr-25-2248_maxeplen10_maxtrainstep1000_exh16_gamma099_lrac3e-4_lrcr1e-3/3109bb1a4c888d48ff6ee722b945383cff227a99_ligand_2.pdbqt
 12 12 0 0 0
SMALL
GASTEIGER

@<TRIPOS>ATOM
      1  C          8.3150    0.2370   -2.1630 C.3     1  UNL1        0.1270
      2  C          9.4300    0.3820   -1.2100 C.2     1  UNL1        0.3030
      3  O          9.4850   -0.3850   -0.2100 O.2     1  UNL1       -0.2520
      4  O         10.4360    1.3440   -1.3760 O.3     1  UNL1       -0.4810
      5  H         11.3310    1.1910   -0.9310 H       1  UNL1        0.2960
      6  C          7.1640   -0.5640   -1.5810 C.3     1  UNL1        0.0470
      7  C          6.3730    0.2560   -0.6270 C.2     1  UNL1       -0.0470
      8  C          6.1490   -0.1850    0.6690 C.2     1  UNL1        0.0040
      9  C          5.8170    1.4760   -0.9700 C.2     1  UNL1        0.0040
     10  C          5.4120    0.5460    1.5730 C.2     1  UNL1        0.0000
     11  C          5.0800    2.2070   -0.0640 C.2     1  UNL1        0.0000
     12  C          4.8610    1.7610    1.2200 C.2     1  UNL1        0.0000
@<TRIPOS>BOND
     1     1     6    1
     2     1     2    1
     3     6     7    1
     4     4     2    1
     5     4     5    1
     6     2     3    2
     7     9     7    2
     8     9    11    1
     9     7     8    1
    10    11    12    2
    11     8    10    2
    12    12    10    1
