@<TRIPOS>MOLECULE
/home/cewinharhar/GITHUB/reincatalyze/data/processed/docking_pred/2023-Apr-25-2248_maxeplen10_maxtrainstep1000_exh16_gamma099_lrac3e-4_lrcr1e-3/3109bb1a4c888d48ff6ee722b945383cff227a99_ligand_2.pdbqt
 12 12 0 0 0
SMALL
GASTEIGER

@<TRIPOS>ATOM
      1  C          8.4160   -0.6840   -2.0890 C.3     1  UNL1        0.1270
      2  C          8.4370   -1.9230   -2.8860 C.2     1  UNL1        0.3030
      3  O          9.5380   -2.5050   -3.0860 O.2     1  UNL1       -0.2520
      4  O          7.2710   -2.4810   -3.4310 O.3     1  UNL1       -0.4810
      5  H          6.3840   -2.2680   -2.9960 H       1  UNL1        0.2960
      6  C          7.0600   -0.0020   -2.1230 C.3     1  UNL1        0.0470
      7  C          6.4890    0.1140   -0.7550 C.2     1  UNL1       -0.0470
      8  C          6.6030   -0.9300    0.1510 C.2     1  UNL1        0.0040
      9  C          5.8160    1.2410   -0.3190 C.2     1  UNL1        0.0040
     10  C          6.0760   -0.8570    1.4200 C.2     1  UNL1        0.0000
     11  C          5.2890    1.3120    0.9520 C.2     1  UNL1        0.0000
     12  C          5.4050    0.2720    1.8450 C.2     1  UNL1        0.0000
@<TRIPOS>BOND
     1     4     5    1
     2     4     2    1
     3     3     2    2
     4     2     1    1
     5     6     1    1
     6     6     7    1
     7     7     9    2
     8     7     8    1
     9     9    11    1
    10     8    10    2
    11    11    12    2
    12    10    12    1
