@<TRIPOS>MOLECULE
/home/cewinharhar/GITHUB/reincatalyze/data/processed/docking_pred/2023-Apr-25-2248_maxeplen10_maxtrainstep1000_exh16_gamma099_lrac3e-4_lrcr1e-3/3110d36e974f17e9d190d2a4a051583463654b40_ligand_2.pdbqt
 12 12 0 0 0
SMALL
GASTEIGER

@<TRIPOS>ATOM
      1  C          8.4040   -0.6130   -2.1940 C.3     1  UNL1        0.1270
      2  C          8.4360   -1.8940   -2.9220 C.2     1  UNL1        0.3030
      3  O          9.5410   -2.4790   -3.0830 O.2     1  UNL1       -0.2520
      4  O          7.2760   -2.4880   -3.4410 O.3     1  UNL1       -0.4810
      5  H          6.6610   -2.9810   -2.8090 H       1  UNL1        0.2960
      6  C          7.0110   -0.0110   -2.1530 C.3     1  UNL1        0.0470
      7  C          6.4950    0.0450   -0.7600 C.2     1  UNL1       -0.0470
      8  C          6.6480   -1.0370    0.0950 C.2     1  UNL1        0.0040
      9  C          5.8400    1.1500   -0.2490 C.2     1  UNL1        0.0040
     10  C          6.1730   -1.0200    1.3860 C.2     1  UNL1        0.0000
     11  C          5.3650    1.1660    1.0450 C.2     1  UNL1        0.0000
     12  C          5.5180    0.0870    1.8870 C.2     1  UNL1        0.0000
@<TRIPOS>BOND
     1     4     2    1
     2     4     5    1
     3     3     2    2
     4     2     1    1
     5     1     6    1
     6     6     7    1
     7     7     9    2
     8     7     8    1
     9     9    11    1
    10     8    10    2
    11    11    12    2
    12    10    12    1
