@<TRIPOS>MOLECULE
/home/cewinharhar/GITHUB/reincatalyze/data/processed/docking_pred/2023-Apr-25-2248_maxeplen10_maxtrainstep1000_exh16_gamma099_lrac3e-4_lrcr1e-3/3110d36e974f17e9d190d2a4a051583463654b40_ligand_2.pdbqt
 12 12 0 0 0
SMALL
GASTEIGER

@<TRIPOS>ATOM
      1  C          5.6160    2.9890   -0.0060 C.3     1  UNL1        0.1270
      2  C          6.3510    3.9420    0.8450 C.2     1  UNL1        0.3030
      3  O          7.1280    4.7740    0.3020 O.2     1  UNL1       -0.2520
      4  O          6.2140    3.9580    2.2400 O.3     1  UNL1       -0.4810
      5  H          5.9490    4.8240    2.6900 H       1  UNL1        0.2960
      6  C          4.8910    1.9330    0.8100 C.3     1  UNL1        0.0470
      7  C          5.6740    0.6710    0.8630 C.2     1  UNL1       -0.0470
      8  C          5.7640   -0.0570    2.0410 C.2     1  UNL1        0.0040
      9  C          6.3510    0.1630   -0.2300 C.2     1  UNL1        0.0040
     10  C          6.4890   -1.2230    2.1260 C.2     1  UNL1        0.0000
     11  C          7.0770   -1.0060   -0.1440 C.2     1  UNL1        0.0000
     12  C          7.1630   -1.7210    1.0290 C.2     1  UNL1        0.0000
@<TRIPOS>BOND
     1     9    11    1
     2     9     7    2
     3    11    12    2
     4     1     6    1
     5     1     2    1
     6     3     2    2
     7     6     7    1
     8     2     4    1
     9     7     8    1
    10    12    10    1
    11     8    10    2
    12     4     5    1
