MODEL 1
REMARK VINA RESULT:      -7.3      0.000      0.000
REMARK SMILES O=C(O)CCc1ccccc1
REMARK SMILES IDX 4 1 2 2 1 3 3 4 5 6 6 7 7 8 11 9 8 10 10 11 9 12
REMARK H PARENT 3 5
REMARK Flexibility Score: inf
ROOT
ATOM      1  C   UNL     1       8.404  -0.613  -2.194  1.00  0.00     0.127 C 
ENDROOT
BRANCH   1   2
ATOM      2  C   UNL     1       8.436  -1.894  -2.922  1.00  0.00     0.303 C 
ATOM      3  O   UNL     1       9.541  -2.479  -3.083  1.00  0.00    -0.252 OA
BRANCH   2   4
ATOM      4  O   UNL     1       7.276  -2.488  -3.441  1.00  0.00    -0.481 OA
ATOM      5  H   UNL     1       6.661  -2.981  -2.809  1.00  0.00     0.296 HD
ENDBRANCH   2   4
ENDBRANCH   1   2
BRANCH   1   6
ATOM      6  C   UNL     1       7.011  -0.011  -2.153  1.00  0.00     0.047 C 
BRANCH   6   7
ATOM      7  C   UNL     1       6.495   0.045  -0.760  1.00  0.00    -0.047 A 
ATOM      8  C   UNL     1       6.648  -1.037   0.095  1.00  0.00     0.004 A 
ATOM      9  C   UNL     1       5.840   1.150  -0.249  1.00  0.00     0.004 A 
ATOM     10  C   UNL     1       6.173  -1.020   1.386  1.00  0.00     0.000 A 
ATOM     11  C   UNL     1       5.365   1.166   1.045  1.00  0.00     0.000 A 
ATOM     12  C   UNL     1       5.518   0.087   1.887  1.00  0.00     0.000 A 
ENDBRANCH   6   7
ENDBRANCH   1   6
TORSDOF 4
ENDMDL
MODEL 2
REMARK VINA RESULT:      -7.2      0.100      1.723
REMARK SMILES O=C(O)CCc1ccccc1
REMARK SMILES IDX 4 1 2 2 1 3 3 4 5 6 6 7 7 8 11 9 8 10 10 11 9 12
REMARK H PARENT 3 5
REMARK Flexibility Score: inf
ROOT
ATOM      1  C   UNL     1       8.375  -0.596  -2.197  1.00  0.00     0.127 C 
ENDROOT
BRANCH   1   2
ATOM      2  C   UNL     1       8.385  -1.882  -2.916  1.00  0.00     0.303 C 
ATOM      3  O   UNL     1       7.287  -2.411  -3.239  1.00  0.00    -0.252 OA
BRANCH   2   4
ATOM      4  O   UNL     1       9.576  -2.540  -3.256  1.00  0.00    -0.481 OA
ATOM      5  H   UNL     1       9.528  -3.506  -3.551  1.00  0.00     0.296 HD
ENDBRANCH   2   4
ENDBRANCH   1   2
BRANCH   1   6
ATOM      6  C   UNL     1       6.988   0.020  -2.141  1.00  0.00     0.047 C 
BRANCH   6   7
ATOM      7  C   UNL     1       6.474   0.047  -0.747  1.00  0.00    -0.047 A 
ATOM      8  C   UNL     1       5.836   1.175  -0.250  1.00  0.00     0.004 A 
ATOM      9  C   UNL     1       6.605  -1.022   0.121  1.00  0.00     0.004 A 
ATOM     10  C   UNL     1       5.358   1.236   1.039  1.00  0.00     0.000 A 
ATOM     11  C   UNL     1       6.125  -0.959   1.411  1.00  0.00     0.000 A 
ATOM     12  C   UNL     1       5.495   0.164   1.897  1.00  0.00     0.000 A 
ENDBRANCH   6   7
ENDBRANCH   1   6
TORSDOF 4
ENDMDL
MODEL 3
REMARK VINA RESULT:      -6.8      3.399      5.088
REMARK SMILES O=C(O)CCc1ccccc1
REMARK SMILES IDX 4 1 2 2 1 3 3 4 5 6 6 7 7 8 11 9 8 10 10 11 9 12
REMARK H PARENT 3 5
REMARK Flexibility Score: inf
ROOT
ATOM      1  C   UNL     1       5.003   1.789   0.712  1.00  0.00     0.127 C 
ENDROOT
BRANCH   1   2
ATOM      2  C   UNL     1       4.478   1.120   1.916  1.00  0.00     0.303 C 
ATOM      3  O   UNL     1       5.168   0.219   2.466  1.00  0.00    -0.252 OA
BRANCH   2   4
ATOM      4  O   UNL     1       3.235   1.452   2.474  1.00  0.00    -0.481 OA
ATOM      5  H   UNL     1       2.600   0.704   2.718  1.00  0.00     0.296 HD
ENDBRANCH   2   4
ENDBRANCH   1   2
BRANCH   1   6
ATOM      6  C   UNL     1       6.517   1.907   0.736  1.00  0.00     0.047 C 
BRANCH   6   7
ATOM      7  C   UNL     1       7.132   1.087  -0.341  1.00  0.00    -0.047 A 
ATOM      8  C   UNL     1       8.481   1.212  -0.642  1.00  0.00     0.004 A 
ATOM      9  C   UNL     1       6.411   0.180  -1.095  1.00  0.00     0.004 A 
ATOM     10  C   UNL     1       9.078   0.475  -1.639  1.00  0.00     0.000 A 
ATOM     11  C   UNL     1       7.011  -0.558  -2.093  1.00  0.00     0.000 A 
ATOM     12  C   UNL     1       8.349  -0.427  -2.387  1.00  0.00     0.000 A 
ENDBRANCH   6   7
ENDBRANCH   1   6
TORSDOF 4
ENDMDL
MODEL 4
REMARK VINA RESULT:      -6.6      3.817      4.926
REMARK SMILES O=C(O)CCc1ccccc1
REMARK SMILES IDX 4 1 2 2 1 3 3 4 5 6 6 7 7 8 11 9 8 10 10 11 9 12
REMARK H PARENT 3 5
REMARK Flexibility Score: inf
ROOT
ATOM      1  C   UNL     1       5.616   2.989  -0.006  1.00  0.00     0.127 C 
ENDROOT
BRANCH   1   2
ATOM      2  C   UNL     1       6.351   3.942   0.845  1.00  0.00     0.303 C 
ATOM      3  O   UNL     1       7.128   4.774   0.302  1.00  0.00    -0.252 OA
BRANCH   2   4
ATOM      4  O   UNL     1       6.214   3.958   2.240  1.00  0.00    -0.481 OA
ATOM      5  H   UNL     1       5.949   4.824   2.690  1.00  0.00     0.296 HD
ENDBRANCH   2   4
ENDBRANCH   1   2
BRANCH   1   6
ATOM      6  C   UNL     1       4.891   1.933   0.810  1.00  0.00     0.047 C 
BRANCH   6   7
ATOM      7  C   UNL     1       5.674   0.671   0.863  1.00  0.00    -0.047 A 
ATOM      8  C   UNL     1       5.764  -0.057   2.041  1.00  0.00     0.004 A 
ATOM      9  C   UNL     1       6.351   0.163  -0.230  1.00  0.00     0.004 A 
ATOM     10  C   UNL     1       6.489  -1.223   2.126  1.00  0.00     0.000 A 
ATOM     11  C   UNL     1       7.077  -1.006  -0.144  1.00  0.00     0.000 A 
ATOM     12  C   UNL     1       7.163  -1.721   1.029  1.00  0.00     0.000 A 
ENDBRANCH   6   7
ENDBRANCH   1   6
TORSDOF 4
ENDMDL
MODEL 5
REMARK VINA RESULT:      -6.6      2.082      2.771
REMARK SMILES O=C(O)CCc1ccccc1
REMARK SMILES IDX 4 1 2 2 1 3 3 4 5 6 6 7 7 8 11 9 8 10 10 11 9 12
REMARK H PARENT 3 5
REMARK Flexibility Score: inf
ROOT
ATOM      1  C   UNL     1       8.495   0.671  -1.653  1.00  0.00     0.127 C 
ENDROOT
BRANCH   1   2
ATOM      2  C   UNL     1       9.656   0.298  -0.827  1.00  0.00     0.303 C 
ATOM      3  O   UNL     1       9.494  -0.509   0.129  1.00  0.00    -0.252 OA
BRANCH   2   4
ATOM      4  O   UNL     1      10.940   0.808  -1.066  1.00  0.00    -0.481 OA
ATOM      5  H   UNL     1      11.514   1.063  -0.275  1.00  0.00     0.296 HD
ENDBRANCH   2   4
ENDBRANCH   1   2
BRANCH   1   6
ATOM      6  C   UNL     1       7.309  -0.250  -1.426  1.00  0.00     0.047 C 
BRANCH   6   7
ATOM      7  C   UNL     1       6.416   0.282  -0.364  1.00  0.00    -0.047 A 
ATOM      8  C   UNL     1       5.777   1.503  -0.524  1.00  0.00     0.004 A 
ATOM      9  C   UNL     1       6.184  -0.387   0.823  1.00  0.00     0.004 A 
ATOM     10  C   UNL     1       4.953   2.028   0.445  1.00  0.00     0.000 A 
ATOM     11  C   UNL     1       5.358   0.140   1.793  1.00  0.00     0.000 A 
ATOM     12  C   UNL     1       4.728   1.353   1.628  1.00  0.00     0.000 A 
ENDBRANCH   6   7
ENDBRANCH   1   6
TORSDOF 4
ENDMDL
