@<TRIPOS>MOLECULE
/home/cewinharhar/GITHUB/reincatalyze/data/processed/docking_pred/2023-Apr-25-2248_maxeplen10_maxtrainstep1000_exh16_gamma099_lrac3e-4_lrcr1e-3/3110d36e974f17e9d190d2a4a051583463654b40_ligand_2.pdbqt
 12 12 0 0 0
SMALL
GASTEIGER

@<TRIPOS>ATOM
      1  C          8.3750   -0.5960   -2.1970 C.3     1  UNL1        0.1270
      2  C          8.3850   -1.8820   -2.9160 C.2     1  UNL1        0.3030
      3  O          7.2870   -2.4110   -3.2390 O.2     1  UNL1       -0.2520
      4  O          9.5760   -2.5400   -3.2560 O.3     1  UNL1       -0.4810
      5  H          9.5280   -3.5060   -3.5510 H       1  UNL1        0.2960
      6  C          6.9880    0.0200   -2.1410 C.3     1  UNL1        0.0470
      7  C          6.4740    0.0470   -0.7470 C.2     1  UNL1       -0.0470
      8  C          5.8360    1.1750   -0.2500 C.2     1  UNL1        0.0040
      9  C          6.6050   -1.0220    0.1210 C.2     1  UNL1        0.0040
     10  C          5.3580    1.2360    1.0390 C.2     1  UNL1        0.0000
     11  C          6.1250   -0.9590    1.4110 C.2     1  UNL1        0.0000
     12  C          5.4950    0.1640    1.8970 C.2     1  UNL1        0.0000
@<TRIPOS>BOND
     1     5     4    1
     2     4     2    1
     3     3     2    2
     4     2     1    1
     5     1     6    1
     6     6     7    1
     7     7     8    2
     8     7     9    1
     9     8    10    1
    10     9    11    2
    11    10    12    2
    12    11    12    1
