@<TRIPOS>MOLECULE
/home/cewinharhar/GITHUB/reincatalyze/data/processed/docking_pred/2023-Apr-25-2248_maxeplen10_maxtrainstep1000_exh16_gamma099_lrac3e-4_lrcr1e-3/3110d36e974f17e9d190d2a4a051583463654b40_ligand_2.pdbqt
 12 12 0 0 0
SMALL
GASTEIGER

@<TRIPOS>ATOM
      1  C          8.4950    0.6710   -1.6530 C.3     1  UNL1        0.1270
      2  C          9.6560    0.2980   -0.8270 C.2     1  UNL1        0.3030
      3  O          9.4940   -0.5090    0.1290 O.2     1  UNL1       -0.2520
      4  O         10.9400    0.8080   -1.0660 O.3     1  UNL1       -0.4810
      5  H         11.5140    1.0630   -0.2750 H       1  UNL1        0.2960
      6  C          7.3090   -0.2500   -1.4260 C.3     1  UNL1        0.0470
      7  C          6.4160    0.2820   -0.3640 C.2     1  UNL1       -0.0470
      8  C          5.7770    1.5030   -0.5240 C.2     1  UNL1        0.0040
      9  C          6.1840   -0.3870    0.8230 C.2     1  UNL1        0.0040
     10  C          4.9530    2.0280    0.4450 C.2     1  UNL1        0.0000
     11  C          5.3580    0.1400    1.7930 C.2     1  UNL1        0.0000
     12  C          4.7280    1.3530    1.6280 C.2     1  UNL1        0.0000
@<TRIPOS>BOND
     1     1     6    1
     2     1     2    1
     3     6     7    1
     4     4     2    1
     5     4     5    1
     6     2     3    2
     7     8     7    2
     8     8    10    1
     9     7     9    1
    10    10    12    2
    11     9    11    2
    12    12    11    1
