@<TRIPOS>MOLECULE
/home/cewinharhar/GITHUB/reincatalyze/data/processed/docking_pred/2023-Apr-25-2248_maxeplen10_maxtrainstep1000_exh16_gamma099_lrac3e-4_lrcr1e-3/3110d36e974f17e9d190d2a4a051583463654b40_ligand_2.pdbqt
 12 12 0 0 0
SMALL
GASTEIGER

@<TRIPOS>ATOM
      1  C          5.0030    1.7890    0.7120 C.3     1  UNL1        0.1270
      2  C          4.4780    1.1200    1.9160 C.2     1  UNL1        0.3030
      3  O          5.1680    0.2190    2.4660 O.2     1  UNL1       -0.2520
      4  O          3.2350    1.4520    2.4740 O.3     1  UNL1       -0.4810
      5  H          2.6000    0.7040    2.7180 H       1  UNL1        0.2960
      6  C          6.5170    1.9070    0.7360 C.3     1  UNL1        0.0470
      7  C          7.1320    1.0870   -0.3410 C.2     1  UNL1       -0.0470
      8  C          8.4810    1.2120   -0.6420 C.2     1  UNL1        0.0040
      9  C          6.4110    0.1800   -1.0950 C.2     1  UNL1        0.0040
     10  C          9.0780    0.4750   -1.6390 C.2     1  UNL1        0.0000
     11  C          7.0110   -0.5580   -2.0930 C.2     1  UNL1        0.0000
     12  C          8.3490   -0.4270   -2.3870 C.2     1  UNL1        0.0000
@<TRIPOS>BOND
     1    12    11    2
     2    12    10    1
     3    11     9    1
     4    10     8    2
     5     9     7    2
     6     8     7    1
     7     7     6    1
     8     1     6    1
     9     1     2    1
    10     2     3    2
    11     2     4    1
    12     4     5    1
