@<TRIPOS>MOLECULE
/home/cewinharhar/GITHUB/reincatalyze/data/processed/docking_pred/2023-Apr-25-2248_maxeplen10_maxtrainstep1000_exh16_gamma099_lrac3e-4_lrcr1e-3/3162da3d825baae428df1736f889259fa2bb10a2_ligand_2.pdbqt
 12 12 0 0 0
SMALL
GASTEIGER

@<TRIPOS>ATOM
      1  C          8.3410   -0.6620   -2.1020 C.3     1  UNL1        0.1270
      2  C          8.3630   -1.8960   -2.9080 C.2     1  UNL1        0.3030
      3  O          7.2710   -2.4060   -3.2760 O.2     1  UNL1       -0.2520
      4  O          9.5600   -2.5230   -3.2820 O.3     1  UNL1       -0.4810
      5  H         10.0250   -2.2150   -4.1250 H       1  UNL1        0.2960
      6  C          8.1010   -0.9430   -0.6290 C.3     1  UNL1        0.0470
      7  C          7.0260   -0.0700   -0.0890 C.2     1  UNL1       -0.0470
      8  C          6.5640   -0.2380    1.2090 C.2     1  UNL1        0.0040
      9  C          6.4290    0.9300   -0.8340 C.2     1  UNL1        0.0040
     10  C          5.5630    0.5470    1.7340 C.2     1  UNL1        0.0000
     11  C          5.4270    1.7150   -0.3060 C.2     1  UNL1        0.0000
     12  C          4.9730    1.5420    0.9820 C.2     1  UNL1        0.0000
@<TRIPOS>BOND
     1     5     4    1
     2     4     2    1
     3     3     2    2
     4     2     1    1
     5     1     6    1
     6     9    11    1
     7     9     7    2
     8     6     7    1
     9    11    12    2
    10     7     8    1
    11    12    10    1
    12     8    10    2
