@<TRIPOS>MOLECULE
/home/cewinharhar/GITHUB/reincatalyze/data/processed/docking_pred/2023-Apr-25-2248_maxeplen10_maxtrainstep1000_exh16_gamma099_lrac3e-4_lrcr1e-3/3162da3d825baae428df1736f889259fa2bb10a2_ligand_2.pdbqt
 12 12 0 0 0
SMALL
GASTEIGER

@<TRIPOS>ATOM
      1  C          8.3010   -1.7200    1.1480 C.3     1  UNL1        0.1270
      2  C          8.6880   -2.9600    0.4520 C.2     1  UNL1        0.3030
      3  O          9.4200   -3.7940    1.0490 O.2     1  UNL1       -0.2520
      4  O          8.2680   -3.2460   -0.8550 O.3     1  UNL1       -0.4810
      5  H          7.3700   -2.8950   -1.1620 H       1  UNL1        0.2960
      6  C          6.8040   -1.6430    1.3940 C.3     1  UNL1        0.0470
      7  C          6.2420   -0.3730    0.8650 C.2     1  UNL1       -0.0470
      8  C          6.4970    0.0240   -0.4400 C.2     1  UNL1        0.0040
      9  C          5.4590    0.4740    1.6270 C.2     1  UNL1        0.0040
     10  C          6.0000    1.1990   -0.9560 C.2     1  UNL1        0.0000
     11  C          4.9620    1.6500    1.1090 C.2     1  UNL1        0.0000
     12  C          5.2200    2.0380   -0.1860 C.2     1  UNL1        0.0000
@<TRIPOS>BOND
     1     5     4    1
     2    10     8    1
     3    10    12    2
     4     4     2    1
     5     8     7    2
     6    12    11    1
     7     2     3    2
     8     2     1    1
     9     7     6    1
    10     7     9    1
    11    11     9    2
    12     1     6    1
