@<TRIPOS>MOLECULE
/home/cewinharhar/GITHUB/reincatalyze/data/processed/docking_pred/2023-Apr-25-2248_maxeplen10_maxtrainstep1000_exh16_gamma099_lrac3e-4_lrcr1e-3/3162da3d825baae428df1736f889259fa2bb10a2_ligand_2.pdbqt
 12 12 0 0 0
SMALL
GASTEIGER

@<TRIPOS>ATOM
      1  C          8.3910   -0.6550   -2.1300 C.3     1  UNL1        0.1270
      2  C          8.4260   -1.9130   -2.8970 C.2     1  UNL1        0.3030
      3  O          9.5340   -2.4890   -3.0770 O.2     1  UNL1       -0.2520
      4  O          7.2690   -2.4940   -3.4350 O.3     1  UNL1       -0.4810
      5  H          6.9170   -3.3450   -3.0190 H       1  UNL1        0.2960
      6  C          7.0090   -0.0250   -2.1250 C.3     1  UNL1        0.0470
      7  C          6.4770    0.0800   -0.7410 C.2     1  UNL1       -0.0470
      8  C          6.6080   -0.9760    0.1500 C.2     1  UNL1        0.0040
      9  C          5.8250    1.2060   -0.2740 C.2     1  UNL1        0.0040
     10  C          6.1160   -0.9140    1.4330 C.2     1  UNL1        0.0000
     11  C          5.3330    1.2670    1.0130 C.2     1  UNL1        0.0000
     12  C          5.4660    0.2140    1.8900 C.2     1  UNL1        0.0000
@<TRIPOS>BOND
     1     4     5    1
     2     4     2    1
     3     3     2    2
     4     2     1    1
     5     1     6    1
     6     6     7    1
     7     7     9    2
     8     7     8    1
     9     9    11    1
    10     8    10    2
    11    11    12    2
    12    10    12    1
