@<TRIPOS>MOLECULE
/home/cewinharhar/GITHUB/reincatalyze/data/processed/docking_pred/2023-Apr-25-2248_maxeplen10_maxtrainstep1000_exh16_gamma099_lrac3e-4_lrcr1e-3/3162da3d825baae428df1736f889259fa2bb10a2_ligand_2.pdbqt
 12 12 0 0 0
SMALL
GASTEIGER

@<TRIPOS>ATOM
      1  C          4.9770    1.7960    0.6990 C.3     1  UNL1        0.1270
      2  C          4.4770    1.1260    1.9120 C.2     1  UNL1        0.3030
      3  O          5.1860    0.2380    2.4580 O.2     1  UNL1       -0.2520
      4  O          3.2360    1.4420    2.4830 O.3     1  UNL1       -0.4810
      5  H          2.8890    2.3880    2.3940 H       1  UNL1        0.2960
      6  C          6.4860    1.9660    0.7180 C.3     1  UNL1        0.0470
      7  C          7.1270    1.1600   -0.3530 C.2     1  UNL1       -0.0470
      8  C          6.3710    0.3080   -1.1460 C.2     1  UNL1        0.0040
      9  C          8.4850    1.2020   -0.6110 C.2     1  UNL1        0.0040
     10  C          6.9360   -0.4590   -2.1390 C.2     1  UNL1        0.0000
     11  C          9.0490    0.4330   -1.6060 C.2     1  UNL1        0.0000
     12  C          8.2930   -0.4110   -2.3870 C.2     1  UNL1        0.0000
@<TRIPOS>BOND
     1    12    10    2
     2    12    11    1
     3    10     8    1
     4    11     9    2
     5     8     7    2
     6     9     7    1
     7     7     6    1
     8     1     6    1
     9     1     2    1
    10     2     3    2
    11     2     4    1
    12     5     4    1
