@<TRIPOS>MOLECULE
/home/cewinharhar/GITHUB/reincatalyze/data/processed/docking_pred/2023-Apr-25-2248_maxeplen10_maxtrainstep1000_exh16_gamma099_lrac3e-4_lrcr1e-3/3162da3d825baae428df1736f889259fa2bb10a2_ligand_2.pdbqt
 12 12 0 0 0
SMALL
GASTEIGER

@<TRIPOS>ATOM
      1  C          8.3830   -0.5950   -2.1970 C.3     1  UNL1        0.1270
      2  C          8.4250   -1.8820   -2.9130 C.2     1  UNL1        0.3030
      3  O          9.5330   -2.4670   -3.0570 O.2     1  UNL1       -0.2520
      4  O          7.2720   -2.4820   -3.4410 O.3     1  UNL1       -0.4810
      5  H          6.5250   -1.8870   -3.7700 H       1  UNL1        0.2960
      6  C          6.9840   -0.0060   -2.1580 C.3     1  UNL1        0.0470
      7  C          6.4690    0.0520   -0.7650 C.2     1  UNL1       -0.0470
      8  C          5.8240    1.1870   -0.2950 C.2     1  UNL1        0.0040
      9  C          6.6080   -0.9950    0.1280 C.2     1  UNL1        0.0040
     10  C          5.3460    1.2750    0.9930 C.2     1  UNL1        0.0000
     11  C          6.1280   -0.9060    1.4170 C.2     1  UNL1        0.0000
     12  C          5.4900    0.2240    1.8760 C.2     1  UNL1        0.0000
@<TRIPOS>BOND
     1     5     4    1
     2     4     2    1
     3     3     2    2
     4     2     1    1
     5     1     6    1
     6     6     7    1
     7     7     8    2
     8     7     9    1
     9     8    10    1
    10     9    11    2
    11    10    12    2
    12    11    12    1
