MODEL 1
REMARK VINA RESULT:      -7.4      0.000      0.000
REMARK SMILES O=C(O)CCc1ccccc1
REMARK SMILES IDX 4 1 2 2 1 3 3 4 5 6 6 7 7 8 11 9 8 10 10 11 9 12
REMARK H PARENT 3 5
REMARK Flexibility Score: inf
ROOT
ATOM      1  C   UNL     1       8.391  -0.655  -2.130  1.00  0.00     0.127 C 
ENDROOT
BRANCH   1   2
ATOM      2  C   UNL     1       8.426  -1.913  -2.897  1.00  0.00     0.303 C 
ATOM      3  O   UNL     1       9.534  -2.489  -3.077  1.00  0.00    -0.252 OA
BRANCH   2   4
ATOM      4  O   UNL     1       7.269  -2.494  -3.435  1.00  0.00    -0.481 OA
ATOM      5  H   UNL     1       6.917  -3.345  -3.019  1.00  0.00     0.296 HD
ENDBRANCH   2   4
ENDBRANCH   1   2
BRANCH   1   6
ATOM      6  C   UNL     1       7.009  -0.025  -2.125  1.00  0.00     0.047 C 
BRANCH   6   7
ATOM      7  C   UNL     1       6.477   0.080  -0.741  1.00  0.00    -0.047 A 
ATOM      8  C   UNL     1       6.608  -0.976   0.150  1.00  0.00     0.004 A 
ATOM      9  C   UNL     1       5.825   1.206  -0.274  1.00  0.00     0.004 A 
ATOM     10  C   UNL     1       6.116  -0.914   1.433  1.00  0.00     0.000 A 
ATOM     11  C   UNL     1       5.333   1.267   1.013  1.00  0.00     0.000 A 
ATOM     12  C   UNL     1       5.466   0.214   1.890  1.00  0.00     0.000 A 
ENDBRANCH   6   7
ENDBRANCH   1   6
TORSDOF 4
ENDMDL
MODEL 2
REMARK VINA RESULT:      -7.4      0.040      1.421
REMARK SMILES O=C(O)CCc1ccccc1
REMARK SMILES IDX 4 1 2 2 1 3 3 4 5 6 6 7 7 8 11 9 8 10 10 11 9 12
REMARK H PARENT 3 5
REMARK Flexibility Score: inf
ROOT
ATOM      1  C   UNL     1       8.383  -0.595  -2.197  1.00  0.00     0.127 C 
ENDROOT
BRANCH   1   2
ATOM      2  C   UNL     1       8.425  -1.882  -2.913  1.00  0.00     0.303 C 
ATOM      3  O   UNL     1       9.533  -2.467  -3.057  1.00  0.00    -0.252 OA
BRANCH   2   4
ATOM      4  O   UNL     1       7.272  -2.482  -3.441  1.00  0.00    -0.481 OA
ATOM      5  H   UNL     1       6.525  -1.887  -3.770  1.00  0.00     0.296 HD
ENDBRANCH   2   4
ENDBRANCH   1   2
BRANCH   1   6
ATOM      6  C   UNL     1       6.984  -0.006  -2.158  1.00  0.00     0.047 C 
BRANCH   6   7
ATOM      7  C   UNL     1       6.469   0.052  -0.765  1.00  0.00    -0.047 A 
ATOM      8  C   UNL     1       5.824   1.187  -0.295  1.00  0.00     0.004 A 
ATOM      9  C   UNL     1       6.608  -0.995   0.128  1.00  0.00     0.004 A 
ATOM     10  C   UNL     1       5.346   1.275   0.993  1.00  0.00     0.000 A 
ATOM     11  C   UNL     1       6.128  -0.906   1.417  1.00  0.00     0.000 A 
ATOM     12  C   UNL     1       5.490   0.224   1.876  1.00  0.00     0.000 A 
ENDBRANCH   6   7
ENDBRANCH   1   6
TORSDOF 4
ENDMDL
MODEL 3
REMARK VINA RESULT:      -7.0      0.709      1.514
REMARK SMILES O=C(O)CCc1ccccc1
REMARK SMILES IDX 4 1 2 2 1 3 3 4 5 6 6 7 7 8 11 9 8 10 10 11 9 12
REMARK H PARENT 3 5
REMARK Flexibility Score: inf
ROOT
ATOM      1  C   UNL     1       8.341  -0.662  -2.102  1.00  0.00     0.127 C 
ENDROOT
BRANCH   1   2
ATOM      2  C   UNL     1       8.363  -1.896  -2.908  1.00  0.00     0.303 C 
ATOM      3  O   UNL     1       7.271  -2.406  -3.276  1.00  0.00    -0.252 OA
BRANCH   2   4
ATOM      4  O   UNL     1       9.560  -2.523  -3.282  1.00  0.00    -0.481 OA
ATOM      5  H   UNL     1      10.025  -2.215  -4.125  1.00  0.00     0.296 HD
ENDBRANCH   2   4
ENDBRANCH   1   2
BRANCH   1   6
ATOM      6  C   UNL     1       8.101  -0.943  -0.629  1.00  0.00     0.047 C 
BRANCH   6   7
ATOM      7  C   UNL     1       7.026  -0.070  -0.089  1.00  0.00    -0.047 A 
ATOM      8  C   UNL     1       6.564  -0.238   1.209  1.00  0.00     0.004 A 
ATOM      9  C   UNL     1       6.429   0.930  -0.834  1.00  0.00     0.004 A 
ATOM     10  C   UNL     1       5.563   0.547   1.734  1.00  0.00     0.000 A 
ATOM     11  C   UNL     1       5.427   1.715  -0.306  1.00  0.00     0.000 A 
ATOM     12  C   UNL     1       4.973   1.542   0.982  1.00  0.00     0.000 A 
ENDBRANCH   6   7
ENDBRANCH   1   6
TORSDOF 4
ENDMDL
MODEL 4
REMARK VINA RESULT:      -6.9      3.394      5.078
REMARK SMILES O=C(O)CCc1ccccc1
REMARK SMILES IDX 4 1 2 2 1 3 3 4 5 6 6 7 7 8 11 9 8 10 10 11 9 12
REMARK H PARENT 3 5
REMARK Flexibility Score: inf
ROOT
ATOM      1  C   UNL     1       4.977   1.796   0.699  1.00  0.00     0.127 C 
ENDROOT
BRANCH   1   2
ATOM      2  C   UNL     1       4.477   1.126   1.912  1.00  0.00     0.303 C 
ATOM      3  O   UNL     1       5.186   0.238   2.458  1.00  0.00    -0.252 OA
BRANCH   2   4
ATOM      4  O   UNL     1       3.236   1.442   2.483  1.00  0.00    -0.481 OA
ATOM      5  H   UNL     1       2.889   2.388   2.394  1.00  0.00     0.296 HD
ENDBRANCH   2   4
ENDBRANCH   1   2
BRANCH   1   6
ATOM      6  C   UNL     1       6.486   1.966   0.718  1.00  0.00     0.047 C 
BRANCH   6   7
ATOM      7  C   UNL     1       7.127   1.160  -0.353  1.00  0.00    -0.047 A 
ATOM      8  C   UNL     1       6.371   0.308  -1.146  1.00  0.00     0.004 A 
ATOM      9  C   UNL     1       8.485   1.202  -0.611  1.00  0.00     0.004 A 
ATOM     10  C   UNL     1       6.936  -0.459  -2.139  1.00  0.00     0.000 A 
ATOM     11  C   UNL     1       9.049   0.433  -1.606  1.00  0.00     0.000 A 
ATOM     12  C   UNL     1       8.293  -0.411  -2.387  1.00  0.00     0.000 A 
ENDBRANCH   6   7
ENDBRANCH   1   6
TORSDOF 4
ENDMDL
MODEL 5
REMARK VINA RESULT:      -6.6      1.962      2.907
REMARK SMILES O=C(O)CCc1ccccc1
REMARK SMILES IDX 4 1 2 2 1 3 3 4 5 6 6 7 7 8 11 9 8 10 10 11 9 12
REMARK H PARENT 3 5
REMARK Flexibility Score: inf
ROOT
ATOM      1  C   UNL     1       8.301  -1.720   1.148  1.00  0.00     0.127 C 
ENDROOT
BRANCH   1   2
ATOM      2  C   UNL     1       8.688  -2.960   0.452  1.00  0.00     0.303 C 
ATOM      3  O   UNL     1       9.420  -3.794   1.049  1.00  0.00    -0.252 OA
BRANCH   2   4
ATOM      4  O   UNL     1       8.268  -3.246  -0.855  1.00  0.00    -0.481 OA
ATOM      5  H   UNL     1       7.370  -2.895  -1.162  1.00  0.00     0.296 HD
ENDBRANCH   2   4
ENDBRANCH   1   2
BRANCH   1   6
ATOM      6  C   UNL     1       6.804  -1.643   1.394  1.00  0.00     0.047 C 
BRANCH   6   7
ATOM      7  C   UNL     1       6.242  -0.373   0.865  1.00  0.00    -0.047 A 
ATOM      8  C   UNL     1       6.497   0.024  -0.440  1.00  0.00     0.004 A 
ATOM      9  C   UNL     1       5.459   0.474   1.627  1.00  0.00     0.004 A 
ATOM     10  C   UNL     1       6.000   1.199  -0.956  1.00  0.00     0.000 A 
ATOM     11  C   UNL     1       4.962   1.650   1.109  1.00  0.00     0.000 A 
ATOM     12  C   UNL     1       5.220   2.038  -0.186  1.00  0.00     0.000 A 
ENDBRANCH   6   7
ENDBRANCH   1   6
TORSDOF 4
ENDMDL
