@<TRIPOS>MOLECULE
/home/cewinharhar/GITHUB/reincatalyze/data/processed/docking_pred/2023-Apr-25-2248_maxeplen10_maxtrainstep1000_exh16_gamma099_lrac3e-4_lrcr1e-3/31638bda67923b1bb66f4f033a77b51352de91e4_ligand_2.pdbqt
 12 12 0 0 0
SMALL
GASTEIGER

@<TRIPOS>ATOM
      1  C          5.0110    1.7650    0.7410 C.3     1  UNL1        0.1270
      2  C          4.4650    1.0980    1.9360 C.2     1  UNL1        0.3030
      3  O          5.1340    0.1820    2.4850 O.2     1  UNL1       -0.2520
      4  O          3.2240    1.4490    2.4870 O.3     1  UNL1       -0.4810
      5  H          2.4100    0.9100    2.2270 H       1  UNL1        0.2960
      6  C          6.5250    1.8690    0.7830 C.3     1  UNL1        0.0470
      7  C          7.1430    1.0850   -0.3190 C.2     1  UNL1       -0.0470
      8  C          6.3970    0.1610   -1.0360 C.2     1  UNL1        0.0040
      9  C          8.4710    1.2210   -0.6790 C.2     1  UNL1        0.0040
     10  C          6.9420   -0.5870   -2.0540 C.2     1  UNL1        0.0000
     11  C          9.0170    0.4710   -1.6990 C.2     1  UNL1        0.0000
     12  C          8.2700   -0.4450   -2.4050 C.2     1  UNL1        0.0000
@<TRIPOS>BOND
     1    12    10    2
     2    12    11    1
     3    10     8    1
     4    11     9    2
     5     8     7    2
     6     9     7    1
     7     7     6    1
     8     1     6    1
     9     1     2    1
    10     2     3    2
    11     2     4    1
    12     5     4    1
