MODEL 1
REMARK VINA RESULT:      -7.3      0.000      0.000
REMARK SMILES O=C(O)CCc1ccccc1
REMARK SMILES IDX 4 1 2 2 1 3 3 4 5 6 6 7 7 8 11 9 8 10 10 11 9 12
REMARK H PARENT 3 5
REMARK Flexibility Score: inf
ROOT
ATOM      1  C   UNL     1       8.392  -0.617  -2.180  1.00  0.00     0.127 C 
ENDROOT
BRANCH   1   2
ATOM      2  C   UNL     1       8.424  -1.893  -2.916  1.00  0.00     0.303 C 
ATOM      3  O   UNL     1       9.528  -2.481  -3.076  1.00  0.00    -0.252 OA
BRANCH   2   4
ATOM      4  O   UNL     1       7.265  -2.479  -3.447  1.00  0.00    -0.481 OA
ATOM      5  H   UNL     1       7.338  -3.393  -3.873  1.00  0.00     0.296 HD
ENDBRANCH   2   4
ENDBRANCH   1   2
BRANCH   1   6
ATOM      6  C   UNL     1       7.001  -0.012  -2.141  1.00  0.00     0.047 C 
BRANCH   6   7
ATOM      7  C   UNL     1       6.485   0.049  -0.748  1.00  0.00    -0.047 A 
ATOM      8  C   UNL     1       6.625  -1.036   0.106  1.00  0.00     0.004 A 
ATOM      9  C   UNL     1       5.841   1.161  -0.236  1.00  0.00     0.004 A 
ATOM     10  C   UNL     1       6.149  -1.015   1.397  1.00  0.00     0.000 A 
ATOM     11  C   UNL     1       5.365   1.180   1.058  1.00  0.00     0.000 A 
ATOM     12  C   UNL     1       5.507   0.100   1.899  1.00  0.00     0.000 A 
ENDBRANCH   6   7
ENDBRANCH   1   6
TORSDOF 4
ENDMDL
MODEL 2
REMARK VINA RESULT:      -7.3      0.167      1.726
REMARK SMILES O=C(O)CCc1ccccc1
REMARK SMILES IDX 4 1 2 2 1 3 3 4 5 6 6 7 7 8 11 9 8 10 10 11 9 12
REMARK H PARENT 3 5
REMARK Flexibility Score: inf
ROOT
ATOM      1  C   UNL     1       8.406  -0.678  -2.093  1.00  0.00     0.127 C 
ENDROOT
BRANCH   1   2
ATOM      2  C   UNL     1       8.403  -1.922  -2.884  1.00  0.00     0.303 C 
ATOM      3  O   UNL     1       7.300  -2.421  -3.236  1.00  0.00    -0.252 OA
BRANCH   2   4
ATOM      4  O   UNL     1       9.588  -2.570  -3.261  1.00  0.00    -0.481 OA
ATOM      5  H   UNL     1      10.298  -2.038  -3.744  1.00  0.00     0.296 HD
ENDBRANCH   2   4
ENDBRANCH   1   2
BRANCH   1   6
ATOM      6  C   UNL     1       7.055   0.015  -2.110  1.00  0.00     0.047 C 
BRANCH   6   7
ATOM      7  C   UNL     1       6.481   0.095  -0.741  1.00  0.00    -0.047 A 
ATOM      8  C   UNL     1       5.803   1.232  -0.324  1.00  0.00     0.004 A 
ATOM      9  C   UNL     1       6.593  -0.931   0.179  1.00  0.00     0.004 A 
ATOM     10  C   UNL     1       5.269   1.341   0.940  1.00  0.00     0.000 A 
ATOM     11  C   UNL     1       6.058  -0.820   1.444  1.00  0.00     0.000 A 
ATOM     12  C   UNL     1       5.388   0.312   1.852  1.00  0.00     0.000 A 
ENDBRANCH   6   7
ENDBRANCH   1   6
TORSDOF 4
ENDMDL
MODEL 3
REMARK VINA RESULT:      -6.8      3.401      5.069
REMARK SMILES O=C(O)CCc1ccccc1
REMARK SMILES IDX 4 1 2 2 1 3 3 4 5 6 6 7 7 8 11 9 8 10 10 11 9 12
REMARK H PARENT 3 5
REMARK Flexibility Score: inf
ROOT
ATOM      1  C   UNL     1       5.011   1.765   0.741  1.00  0.00     0.127 C 
ENDROOT
BRANCH   1   2
ATOM      2  C   UNL     1       4.465   1.098   1.936  1.00  0.00     0.303 C 
ATOM      3  O   UNL     1       5.134   0.182   2.485  1.00  0.00    -0.252 OA
BRANCH   2   4
ATOM      4  O   UNL     1       3.224   1.449   2.487  1.00  0.00    -0.481 OA
ATOM      5  H   UNL     1       2.410   0.910   2.227  1.00  0.00     0.296 HD
ENDBRANCH   2   4
ENDBRANCH   1   2
BRANCH   1   6
ATOM      6  C   UNL     1       6.525   1.869   0.783  1.00  0.00     0.047 C 
BRANCH   6   7
ATOM      7  C   UNL     1       7.143   1.085  -0.319  1.00  0.00    -0.047 A 
ATOM      8  C   UNL     1       6.397   0.161  -1.036  1.00  0.00     0.004 A 
ATOM      9  C   UNL     1       8.471   1.221  -0.679  1.00  0.00     0.004 A 
ATOM     10  C   UNL     1       6.942  -0.587  -2.054  1.00  0.00     0.000 A 
ATOM     11  C   UNL     1       9.017   0.471  -1.699  1.00  0.00     0.000 A 
ATOM     12  C   UNL     1       8.270  -0.445  -2.405  1.00  0.00     0.000 A 
ENDBRANCH   6   7
ENDBRANCH   1   6
TORSDOF 4
ENDMDL
MODEL 4
REMARK VINA RESULT:      -6.8      3.400      5.091
REMARK SMILES O=C(O)CCc1ccccc1
REMARK SMILES IDX 4 1 2 2 1 3 3 4 5 6 6 7 7 8 11 9 8 10 10 11 9 12
REMARK H PARENT 3 5
REMARK Flexibility Score: inf
ROOT
ATOM      1  C   UNL     1       5.000   1.795   0.709  1.00  0.00     0.127 C 
ENDROOT
BRANCH   1   2
ATOM      2  C   UNL     1       4.478   1.128   1.915  1.00  0.00     0.303 C 
ATOM      3  O   UNL     1       5.169   0.229   2.465  1.00  0.00    -0.252 OA
BRANCH   2   4
ATOM      4  O   UNL     1       3.236   1.461   2.475  1.00  0.00    -0.481 OA
ATOM      5  H   UNL     1       2.562   0.723   2.628  1.00  0.00     0.296 HD
ENDBRANCH   2   4
ENDBRANCH   1   2
BRANCH   1   6
ATOM      6  C   UNL     1       6.513   1.918   0.731  1.00  0.00     0.047 C 
BRANCH   6   7
ATOM      7  C   UNL     1       7.129   1.098  -0.345  1.00  0.00    -0.047 A 
ATOM      8  C   UNL     1       8.477   1.227  -0.649  1.00  0.00     0.004 A 
ATOM      9  C   UNL     1       6.410   0.186  -1.096  1.00  0.00     0.004 A 
ATOM     10  C   UNL     1       9.074   0.491  -1.646  1.00  0.00     0.000 A 
ATOM     11  C   UNL     1       7.010  -0.551  -2.094  1.00  0.00     0.000 A 
ATOM     12  C   UNL     1       8.348  -0.416  -2.391  1.00  0.00     0.000 A 
ENDBRANCH   6   7
ENDBRANCH   1   6
TORSDOF 4
ENDMDL
MODEL 5
REMARK VINA RESULT:      -6.6      2.084      2.765
REMARK SMILES O=C(O)CCc1ccccc1
REMARK SMILES IDX 4 1 2 2 1 3 3 4 5 6 6 7 7 8 11 9 8 10 10 11 9 12
REMARK H PARENT 3 5
REMARK Flexibility Score: inf
ROOT
ATOM      1  C   UNL     1       8.497   0.638  -1.649  1.00  0.00     0.127 C 
ENDROOT
BRANCH   1   2
ATOM      2  C   UNL     1       9.664   0.284  -0.822  1.00  0.00     0.303 C 
ATOM      3  O   UNL     1       9.508  -0.506   0.149  1.00  0.00    -0.252 OA
BRANCH   2   4
ATOM      4  O   UNL     1      10.945   0.793  -1.078  1.00  0.00    -0.481 OA
ATOM      5  H   UNL     1      11.523   1.064  -0.294  1.00  0.00     0.296 HD
ENDBRANCH   2   4
ENDBRANCH   1   2
BRANCH   1   6
ATOM      6  C   UNL     1       7.318  -0.288  -1.407  1.00  0.00     0.047 C 
BRANCH   6   7
ATOM      7  C   UNL     1       6.424   0.254  -0.351  1.00  0.00    -0.047 A 
ATOM      8  C   UNL     1       5.798   1.482  -0.515  1.00  0.00     0.004 A 
ATOM      9  C   UNL     1       6.176  -0.413   0.835  1.00  0.00     0.004 A 
ATOM     10  C   UNL     1       4.972   2.015   0.448  1.00  0.00     0.000 A 
ATOM     11  C   UNL     1       5.349   0.123   1.799  1.00  0.00     0.000 A 
ATOM     12  C   UNL     1       4.732   1.342   1.629  1.00  0.00     0.000 A 
ENDBRANCH   6   7
ENDBRANCH   1   6
TORSDOF 4
ENDMDL
