@<TRIPOS>MOLECULE
/home/cewinharhar/GITHUB/reincatalyze/data/processed/docking_pred/2023-Apr-25-2248_maxeplen10_maxtrainstep1000_exh16_gamma099_lrac3e-4_lrcr1e-3/31638bda67923b1bb66f4f033a77b51352de91e4_ligand_2.pdbqt
 12 12 0 0 0
SMALL
GASTEIGER

@<TRIPOS>ATOM
      1  C          8.3920   -0.6170   -2.1800 C.3     1  UNL1        0.1270
      2  C          8.4240   -1.8930   -2.9160 C.2     1  UNL1        0.3030
      3  O          9.5280   -2.4810   -3.0760 O.2     1  UNL1       -0.2520
      4  O          7.2650   -2.4790   -3.4470 O.3     1  UNL1       -0.4810
      5  H          7.3380   -3.3930   -3.8730 H       1  UNL1        0.2960
      6  C          7.0010   -0.0120   -2.1410 C.3     1  UNL1        0.0470
      7  C          6.4850    0.0490   -0.7480 C.2     1  UNL1       -0.0470
      8  C          6.6250   -1.0360    0.1060 C.2     1  UNL1        0.0040
      9  C          5.8410    1.1610   -0.2360 C.2     1  UNL1        0.0040
     10  C          6.1490   -1.0150    1.3970 C.2     1  UNL1        0.0000
     11  C          5.3650    1.1800    1.0580 C.2     1  UNL1        0.0000
     12  C          5.5070    0.1000    1.8990 C.2     1  UNL1        0.0000
@<TRIPOS>BOND
     1     5     4    1
     2     4     2    1
     3     3     2    2
     4     2     1    1
     5     1     6    1
     6     6     7    1
     7     7     9    2
     8     7     8    1
     9     9    11    1
    10     8    10    2
    11    11    12    2
    12    10    12    1
