@<TRIPOS>MOLECULE
/home/cewinharhar/GITHUB/reincatalyze/data/processed/docking_pred/2023-Apr-25-2248_maxeplen10_maxtrainstep1000_exh16_gamma099_lrac3e-4_lrcr1e-3/31638bda67923b1bb66f4f033a77b51352de91e4_ligand_2.pdbqt
 12 12 0 0 0
SMALL
GASTEIGER

@<TRIPOS>ATOM
      1  C          8.4970    0.6380   -1.6490 C.3     1  UNL1        0.1270
      2  C          9.6640    0.2840   -0.8220 C.2     1  UNL1        0.3030
      3  O          9.5080   -0.5060    0.1490 O.2     1  UNL1       -0.2520
      4  O         10.9450    0.7930   -1.0780 O.3     1  UNL1       -0.4810
      5  H         11.5230    1.0640   -0.2940 H       1  UNL1        0.2960
      6  C          7.3180   -0.2880   -1.4070 C.3     1  UNL1        0.0470
      7  C          6.4240    0.2540   -0.3510 C.2     1  UNL1       -0.0470
      8  C          5.7980    1.4820   -0.5150 C.2     1  UNL1        0.0040
      9  C          6.1760   -0.4130    0.8350 C.2     1  UNL1        0.0040
     10  C          4.9720    2.0150    0.4480 C.2     1  UNL1        0.0000
     11  C          5.3490    0.1230    1.7990 C.2     1  UNL1        0.0000
     12  C          4.7320    1.3420    1.6290 C.2     1  UNL1        0.0000
@<TRIPOS>BOND
     1     1     6    1
     2     1     2    1
     3     6     7    1
     4     4     2    1
     5     4     5    1
     6     2     3    2
     7     8     7    2
     8     8    10    1
     9     7     9    1
    10    10    12    2
    11     9    11    2
    12    12    11    1
