@<TRIPOS>MOLECULE
/home/cewinharhar/GITHUB/reincatalyze/data/processed/docking_pred/2023-Apr-25-2248_maxeplen10_maxtrainstep1000_exh16_gamma099_lrac3e-4_lrcr1e-3/31638bda67923b1bb66f4f033a77b51352de91e4_ligand_2.pdbqt
 12 12 0 0 0
SMALL
GASTEIGER

@<TRIPOS>ATOM
      1  C          8.4060   -0.6780   -2.0930 C.3     1  UNL1        0.1270
      2  C          8.4030   -1.9220   -2.8840 C.2     1  UNL1        0.3030
      3  O          7.3000   -2.4210   -3.2360 O.2     1  UNL1       -0.2520
      4  O          9.5880   -2.5700   -3.2610 O.3     1  UNL1       -0.4810
      5  H         10.2980   -2.0380   -3.7440 H       1  UNL1        0.2960
      6  C          7.0550    0.0150   -2.1100 C.3     1  UNL1        0.0470
      7  C          6.4810    0.0950   -0.7410 C.2     1  UNL1       -0.0470
      8  C          5.8030    1.2320   -0.3240 C.2     1  UNL1        0.0040
      9  C          6.5930   -0.9310    0.1790 C.2     1  UNL1        0.0040
     10  C          5.2690    1.3410    0.9400 C.2     1  UNL1        0.0000
     11  C          6.0580   -0.8200    1.4440 C.2     1  UNL1        0.0000
     12  C          5.3880    0.3120    1.8520 C.2     1  UNL1        0.0000
@<TRIPOS>BOND
     1     5     4    1
     2     4     2    1
     3     3     2    2
     4     2     1    1
     5     6     1    1
     6     6     7    1
     7     7     8    2
     8     7     9    1
     9     8    10    1
    10     9    11    2
    11    10    12    2
    12    11    12    1
