@<TRIPOS>MOLECULE
/home/cewinharhar/GITHUB/reincatalyze/data/processed/docking_pred/2023-Apr-25-2248_maxeplen10_maxtrainstep1000_exh16_gamma099_lrac3e-4_lrcr1e-3/31638bda67923b1bb66f4f033a77b51352de91e4_ligand_2.pdbqt
 12 12 0 0 0
SMALL
GASTEIGER

@<TRIPOS>ATOM
      1  C          5.0000    1.7950    0.7090 C.3     1  UNL1        0.1270
      2  C          4.4780    1.1280    1.9150 C.2     1  UNL1        0.3030
      3  O          5.1690    0.2290    2.4650 O.2     1  UNL1       -0.2520
      4  O          3.2360    1.4610    2.4750 O.3     1  UNL1       -0.4810
      5  H          2.5620    0.7230    2.6280 H       1  UNL1        0.2960
      6  C          6.5130    1.9180    0.7310 C.3     1  UNL1        0.0470
      7  C          7.1290    1.0980   -0.3450 C.2     1  UNL1       -0.0470
      8  C          8.4770    1.2270   -0.6490 C.2     1  UNL1        0.0040
      9  C          6.4100    0.1860   -1.0960 C.2     1  UNL1        0.0040
     10  C          9.0740    0.4910   -1.6460 C.2     1  UNL1        0.0000
     11  C          7.0100   -0.5510   -2.0940 C.2     1  UNL1        0.0000
     12  C          8.3480   -0.4160   -2.3910 C.2     1  UNL1        0.0000
@<TRIPOS>BOND
     1    12    11    2
     2    12    10    1
     3    11     9    1
     4    10     8    2
     5     9     7    2
     6     8     7    1
     7     7     6    1
     8     1     6    1
     9     1     2    1
    10     2     3    2
    11     2     4    1
    12     4     5    1
