MODEL 1
REMARK VINA RESULT:      -7.3      0.000      0.000
REMARK SMILES O=C(O)CCc1ccccc1
REMARK SMILES IDX 4 1 2 2 1 3 3 4 5 6 6 7 7 8 11 9 8 10 10 11 9 12
REMARK H PARENT 3 5
REMARK Flexibility Score: inf
ROOT
ATOM      1  C   UNL     1       8.403  -0.730  -2.025  1.00  0.00     0.127 C 
ENDROOT
BRANCH   1   2
ATOM      2  C   UNL     1       8.398  -1.946  -2.858  1.00  0.00     0.303 C 
ATOM      3  O   UNL     1       7.294  -2.418  -3.245  1.00  0.00    -0.252 OA
BRANCH   2   4
ATOM      4  O   UNL     1       9.580  -2.598  -3.238  1.00  0.00    -0.481 OA
ATOM      5  H   UNL     1       9.714  -3.559  -2.954  1.00  0.00     0.296 HD
ENDBRANCH   2   4
ENDBRANCH   1   2
BRANCH   1   6
ATOM      6  C   UNL     1       7.084   0.018  -2.094  1.00  0.00     0.047 C 
BRANCH   6   7
ATOM      7  C   UNL     1       6.480   0.157  -0.743  1.00  0.00    -0.047 A 
ATOM      8  C   UNL     1       6.594  -0.862   0.192  1.00  0.00     0.004 A 
ATOM      9  C   UNL     1       5.774   1.280  -0.351  1.00  0.00     0.004 A 
ATOM     10  C   UNL     1       6.037  -0.769   1.446  1.00  0.00     0.000 A 
ATOM     11  C   UNL     1       5.217   1.372   0.906  1.00  0.00     0.000 A 
ATOM     12  C   UNL     1       5.334   0.356   1.828  1.00  0.00     0.000 A 
ENDBRANCH   6   7
ENDBRANCH   1   6
TORSDOF 4
ENDMDL
MODEL 2
REMARK VINA RESULT:      -7.3      0.047      1.421
REMARK SMILES O=C(O)CCc1ccccc1
REMARK SMILES IDX 4 1 2 2 1 3 3 4 5 6 6 7 7 8 11 9 8 10 10 11 9 12
REMARK H PARENT 3 5
REMARK Flexibility Score: inf
ROOT
ATOM      1  C   UNL     1       8.432  -0.733  -2.021  1.00  0.00     0.127 C 
ENDROOT
BRANCH   1   2
ATOM      2  C   UNL     1       8.416  -1.942  -2.864  1.00  0.00     0.303 C 
ATOM      3  O   UNL     1       7.307  -2.417  -3.231  1.00  0.00    -0.252 OA
BRANCH   2   4
ATOM      4  O   UNL     1       9.593  -2.583  -3.275  1.00  0.00    -0.481 OA
ATOM      5  H   UNL     1       9.827  -2.580  -4.259  1.00  0.00     0.296 HD
ENDBRANCH   2   4
ENDBRANCH   1   2
BRANCH   1   6
ATOM      6  C   UNL     1       7.122   0.032  -2.089  1.00  0.00     0.047 C 
BRANCH   6   7
ATOM      7  C   UNL     1       6.500   0.144  -0.744  1.00  0.00    -0.047 A 
ATOM      8  C   UNL     1       5.769   1.270  -0.394  1.00  0.00     0.004 A 
ATOM      9  C   UNL     1       6.618  -0.841   0.219  1.00  0.00     0.004 A 
ATOM     10  C   UNL     1       5.190   1.408   0.847  1.00  0.00     0.000 A 
ATOM     11  C   UNL     1       6.036  -0.702   1.461  1.00  0.00     0.000 A 
ATOM     12  C   UNL     1       5.314   0.420   1.802  1.00  0.00     0.000 A 
ENDBRANCH   6   7
ENDBRANCH   1   6
TORSDOF 4
ENDMDL
MODEL 3
REMARK VINA RESULT:      -6.8      3.325      5.176
REMARK SMILES O=C(O)CCc1ccccc1
REMARK SMILES IDX 4 1 2 2 1 3 3 4 5 6 6 7 7 8 11 9 8 10 10 11 9 12
REMARK H PARENT 3 5
REMARK Flexibility Score: inf
ROOT
ATOM      1  C   UNL     1       4.992   1.794   0.714  1.00  0.00     0.127 C 
ENDROOT
BRANCH   1   2
ATOM      2  C   UNL     1       4.477   1.128   1.923  1.00  0.00     0.303 C 
ATOM      3  O   UNL     1       5.178   0.239   2.478  1.00  0.00    -0.252 OA
BRANCH   2   4
ATOM      4  O   UNL     1       3.232   1.450   2.482  1.00  0.00    -0.481 OA
ATOM      5  H   UNL     1       2.928   2.414   2.461  1.00  0.00     0.296 HD
ENDBRANCH   2   4
ENDBRANCH   1   2
BRANCH   1   6
ATOM      6  C   UNL     1       6.505   1.928   0.732  1.00  0.00     0.047 C 
BRANCH   6   7
ATOM      7  C   UNL     1       7.125   1.110  -0.343  1.00  0.00    -0.047 A 
ATOM      8  C   UNL     1       8.477   1.228  -0.631  1.00  0.00     0.004 A 
ATOM      9  C   UNL     1       6.406   0.211  -1.109  1.00  0.00     0.004 A 
ATOM     10  C   UNL     1       9.079   0.493  -1.627  1.00  0.00     0.000 A 
ATOM     11  C   UNL     1       7.010  -0.524  -2.106  1.00  0.00     0.000 A 
ATOM     12  C   UNL     1       8.351  -0.401  -2.387  1.00  0.00     0.000 A 
ENDBRANCH   6   7
ENDBRANCH   1   6
TORSDOF 4
ENDMDL
MODEL 4
REMARK VINA RESULT:      -6.6      1.933      2.259
REMARK SMILES O=C(O)CCc1ccccc1
REMARK SMILES IDX 4 1 2 2 1 3 3 4 5 6 6 7 7 8 11 9 8 10 10 11 9 12
REMARK H PARENT 3 5
REMARK Flexibility Score: inf
ROOT
ATOM      1  C   UNL     1       8.265   0.123  -2.188  1.00  0.00     0.127 C 
ENDROOT
BRANCH   1   2
ATOM      2  C   UNL     1       9.376   0.328  -1.242  1.00  0.00     0.303 C 
ATOM      3  O   UNL     1       9.457  -0.411  -0.223  1.00  0.00    -0.252 OA
BRANCH   2   4
ATOM      4  O   UNL     1      10.350   1.318  -1.436  1.00  0.00    -0.481 OA
ATOM      5  H   UNL     1      10.337   1.846  -2.298  1.00  0.00     0.296 HD
ENDBRANCH   2   4
ENDBRANCH   1   2
BRANCH   1   6
ATOM      6  C   UNL     1       7.108  -0.634  -1.560  1.00  0.00     0.047 C 
BRANCH   6   7
ATOM      7  C   UNL     1       6.333   0.242  -0.644  1.00  0.00    -0.047 A 
ATOM      8  C   UNL     1       6.089  -0.143   0.667  1.00  0.00     0.004 A 
ATOM      9  C   UNL     1       5.812   1.461  -1.038  1.00  0.00     0.004 A 
ATOM     10  C   UNL     1       5.366   0.642   1.536  1.00  0.00     0.000 A 
ATOM     11  C   UNL     1       5.087   2.246  -0.166  1.00  0.00     0.000 A 
ATOM     12  C   UNL     1       4.848   1.856   1.133  1.00  0.00     0.000 A 
ENDBRANCH   6   7
ENDBRANCH   1   6
TORSDOF 4
ENDMDL
MODEL 5
REMARK VINA RESULT:      -6.5      3.822      4.966
REMARK SMILES O=C(O)CCc1ccccc1
REMARK SMILES IDX 4 1 2 2 1 3 3 4 5 6 6 7 7 8 11 9 8 10 10 11 9 12
REMARK H PARENT 3 5
REMARK Flexibility Score: inf
ROOT
ATOM      1  C   UNL     1       5.554   2.937   0.020  1.00  0.00     0.127 C 
ENDROOT
BRANCH   1   2
ATOM      2  C   UNL     1       6.328   3.855   0.875  1.00  0.00     0.303 C 
ATOM      3  O   UNL     1       6.159   3.817   2.124  1.00  0.00    -0.252 OA
BRANCH   2   4
ATOM      4  O   UNL     1       7.250   4.770   0.346  1.00  0.00    -0.481 OA
ATOM      5  H   UNL     1       7.095   5.128  -0.586  1.00  0.00     0.296 HD
ENDBRANCH   2   4
ENDBRANCH   1   2
BRANCH   1   6
ATOM      6  C   UNL     1       4.838   1.868   0.827  1.00  0.00     0.047 C 
BRANCH   6   7
ATOM      7  C   UNL     1       5.657   0.631   0.917  1.00  0.00    -0.047 A 
ATOM      8  C   UNL     1       6.349   0.158  -0.189  1.00  0.00     0.004 A 
ATOM      9  C   UNL     1       5.767  -0.111   2.079  1.00  0.00     0.004 A 
ATOM     10  C   UNL     1       7.107  -0.989  -0.141  1.00  0.00     0.000 A 
ATOM     11  C   UNL     1       6.526  -1.260   2.125  1.00  0.00     0.000 A 
ATOM     12  C   UNL     1       7.209  -1.723   1.023  1.00  0.00     0.000 A 
ENDBRANCH   6   7
ENDBRANCH   1   6
TORSDOF 4
ENDMDL
