@<TRIPOS>MOLECULE
/home/cewinharhar/GITHUB/reincatalyze/data/processed/docking_pred/2023-Apr-25-2248_maxeplen10_maxtrainstep1000_exh16_gamma099_lrac3e-4_lrcr1e-3/31de0aabf4a391366091aaa04775d5537fef7eaf_ligand_2.pdbqt
 12 12 0 0 0
SMALL
GASTEIGER

@<TRIPOS>ATOM
      1  C          4.9920    1.7940    0.7140 C.3     1  UNL1        0.1270
      2  C          4.4770    1.1280    1.9230 C.2     1  UNL1        0.3030
      3  O          5.1780    0.2390    2.4780 O.2     1  UNL1       -0.2520
      4  O          3.2320    1.4500    2.4820 O.3     1  UNL1       -0.4810
      5  H          2.9280    2.4140    2.4610 H       1  UNL1        0.2960
      6  C          6.5050    1.9280    0.7320 C.3     1  UNL1        0.0470
      7  C          7.1250    1.1100   -0.3430 C.2     1  UNL1       -0.0470
      8  C          8.4770    1.2280   -0.6310 C.2     1  UNL1        0.0040
      9  C          6.4060    0.2110   -1.1090 C.2     1  UNL1        0.0040
     10  C          9.0790    0.4930   -1.6270 C.2     1  UNL1        0.0000
     11  C          7.0100   -0.5240   -2.1060 C.2     1  UNL1        0.0000
     12  C          8.3510   -0.4010   -2.3870 C.2     1  UNL1        0.0000
@<TRIPOS>BOND
     1    12    11    2
     2    12    10    1
     3    11     9    1
     4    10     8    2
     5     9     7    2
     6     8     7    1
     7     7     6    1
     8     1     6    1
     9     1     2    1
    10     2     3    2
    11     2     4    1
    12     5     4    1
