@<TRIPOS>MOLECULE
/home/cewinharhar/GITHUB/reincatalyze/data/processed/docking_pred/2023-Apr-25-2248_maxeplen10_maxtrainstep1000_exh16_gamma099_lrac3e-4_lrcr1e-3/31de0aabf4a391366091aaa04775d5537fef7eaf_ligand_2.pdbqt
 12 12 0 0 0
SMALL
GASTEIGER

@<TRIPOS>ATOM
      1  C          8.4320   -0.7330   -2.0210 C.3     1  UNL1        0.1270
      2  C          8.4160   -1.9420   -2.8640 C.2     1  UNL1        0.3030
      3  O          7.3070   -2.4170   -3.2310 O.2     1  UNL1       -0.2520
      4  O          9.5930   -2.5830   -3.2750 O.3     1  UNL1       -0.4810
      5  H          9.8270   -2.5800   -4.2590 H       1  UNL1        0.2960
      6  C          7.1220    0.0320   -2.0890 C.3     1  UNL1        0.0470
      7  C          6.5000    0.1440   -0.7440 C.2     1  UNL1       -0.0470
      8  C          5.7690    1.2700   -0.3940 C.2     1  UNL1        0.0040
      9  C          6.6180   -0.8410    0.2190 C.2     1  UNL1        0.0040
     10  C          5.1900    1.4080    0.8470 C.2     1  UNL1        0.0000
     11  C          6.0360   -0.7020    1.4610 C.2     1  UNL1        0.0000
     12  C          5.3140    0.4200    1.8020 C.2     1  UNL1        0.0000
@<TRIPOS>BOND
     1     5     4    1
     2     4     2    1
     3     3     2    2
     4     2     1    1
     5     6     1    1
     6     6     7    1
     7     7     8    2
     8     7     9    1
     9     8    10    1
    10     9    11    2
    11    10    12    2
    12    11    12    1
