@<TRIPOS>MOLECULE
/home/cewinharhar/GITHUB/reincatalyze/data/processed/docking_pred/2023-Apr-25-2248_maxeplen10_maxtrainstep1000_exh16_gamma099_lrac3e-4_lrcr1e-3/31de0aabf4a391366091aaa04775d5537fef7eaf_ligand_2.pdbqt
 12 12 0 0 0
SMALL
GASTEIGER

@<TRIPOS>ATOM
      1  C          5.5540    2.9370    0.0200 C.3     1  UNL1        0.1270
      2  C          6.3280    3.8550    0.8750 C.2     1  UNL1        0.3030
      3  O          6.1590    3.8170    2.1240 O.2     1  UNL1       -0.2520
      4  O          7.2500    4.7700    0.3460 O.3     1  UNL1       -0.4810
      5  H          7.0950    5.1280   -0.5860 H       1  UNL1        0.2960
      6  C          4.8380    1.8680    0.8270 C.3     1  UNL1        0.0470
      7  C          5.6570    0.6310    0.9170 C.2     1  UNL1       -0.0470
      8  C          6.3490    0.1580   -0.1890 C.2     1  UNL1        0.0040
      9  C          5.7670   -0.1110    2.0790 C.2     1  UNL1        0.0040
     10  C          7.1070   -0.9890   -0.1410 C.2     1  UNL1        0.0000
     11  C          6.5260   -1.2600    2.1250 C.2     1  UNL1        0.0000
     12  C          7.2090   -1.7230    1.0230 C.2     1  UNL1        0.0000
@<TRIPOS>BOND
     1     5     4    1
     2     8    10    1
     3     8     7    2
     4    10    12    2
     5     1     6    1
     6     1     2    1
     7     4     2    1
     8     6     7    1
     9     2     3    2
    10     7     9    1
    11    12    11    1
    12     9    11    2
