@<TRIPOS>MOLECULE
/home/cewinharhar/GITHUB/reincatalyze/data/processed/docking_pred/2023-Apr-25-2248_maxeplen10_maxtrainstep1000_exh16_gamma099_lrac3e-4_lrcr1e-3/31de0aabf4a391366091aaa04775d5537fef7eaf_ligand_2.pdbqt
 12 12 0 0 0
SMALL
GASTEIGER

@<TRIPOS>ATOM
      1  C          8.4030   -0.7300   -2.0250 C.3     1  UNL1        0.1270
      2  C          8.3980   -1.9460   -2.8580 C.2     1  UNL1        0.3030
      3  O          7.2940   -2.4180   -3.2450 O.2     1  UNL1       -0.2520
      4  O          9.5800   -2.5980   -3.2380 O.3     1  UNL1       -0.4810
      5  H          9.7140   -3.5590   -2.9540 H       1  UNL1        0.2960
      6  C          7.0840    0.0180   -2.0940 C.3     1  UNL1        0.0470
      7  C          6.4800    0.1570   -0.7430 C.2     1  UNL1       -0.0470
      8  C          6.5940   -0.8620    0.1920 C.2     1  UNL1        0.0040
      9  C          5.7740    1.2800   -0.3510 C.2     1  UNL1        0.0040
     10  C          6.0370   -0.7690    1.4460 C.2     1  UNL1        0.0000
     11  C          5.2170    1.3720    0.9060 C.2     1  UNL1        0.0000
     12  C          5.3340    0.3560    1.8280 C.2     1  UNL1        0.0000
@<TRIPOS>BOND
     1     3     2    2
     2     4     5    1
     3     4     2    1
     4     2     1    1
     5     6     1    1
     6     6     7    1
     7     7     9    2
     8     7     8    1
     9     9    11    1
    10     8    10    2
    11    11    12    2
    12    10    12    1
