@<TRIPOS>MOLECULE
/home/cewinharhar/GITHUB/reincatalyze/data/processed/docking_pred/2023-Apr-25-2248_maxeplen10_maxtrainstep1000_exh16_gamma099_lrac3e-4_lrcr1e-3/31de0aabf4a391366091aaa04775d5537fef7eaf_ligand_2.pdbqt
 12 12 0 0 0
SMALL
GASTEIGER

@<TRIPOS>ATOM
      1  C          8.2650    0.1230   -2.1880 C.3     1  UNL1        0.1270
      2  C          9.3760    0.3280   -1.2420 C.2     1  UNL1        0.3030
      3  O          9.4570   -0.4110   -0.2230 O.2     1  UNL1       -0.2520
      4  O         10.3500    1.3180   -1.4360 O.3     1  UNL1       -0.4810
      5  H         10.3370    1.8460   -2.2980 H       1  UNL1        0.2960
      6  C          7.1080   -0.6340   -1.5600 C.3     1  UNL1        0.0470
      7  C          6.3330    0.2420   -0.6440 C.2     1  UNL1       -0.0470
      8  C          6.0890   -0.1430    0.6670 C.2     1  UNL1        0.0040
      9  C          5.8120    1.4610   -1.0380 C.2     1  UNL1        0.0040
     10  C          5.3660    0.6420    1.5360 C.2     1  UNL1        0.0000
     11  C          5.0870    2.2460   -0.1660 C.2     1  UNL1        0.0000
     12  C          4.8480    1.8560    1.1330 C.2     1  UNL1        0.0000
@<TRIPOS>BOND
     1     5     4    1
     2     1     6    1
     3     1     2    1
     4     6     7    1
     5     4     2    1
     6     2     3    2
     7     9     7    2
     8     9    11    1
     9     7     8    1
    10    11    12    2
    11     8    10    2
    12    12    10    1
