@<TRIPOS>MOLECULE
/home/cewinharhar/GITHUB/reincatalyze/data/processed/docking_pred/2023-Apr-25-2248_maxeplen10_maxtrainstep1000_exh16_gamma099_lrac3e-4_lrcr1e-3/325804283c972141be72207ce76252ef5fb41c17_ligand_2.pdbqt
 12 12 0 0 0
SMALL
GASTEIGER

@<TRIPOS>ATOM
      1  C          8.4380   -0.6870   -2.0990 C.3     1  UNL1        0.1270
      2  C          8.4520   -1.9310   -2.8900 C.2     1  UNL1        0.3030
      3  O          9.5520   -2.5140   -3.0940 O.2     1  UNL1       -0.2520
      4  O          7.2830   -2.4920   -3.4240 O.3     1  UNL1       -0.4810
      5  H          7.2630   -2.7200   -4.4080 H       1  UNL1        0.2960
      6  C          7.0840   -0.0010   -2.1350 C.3     1  UNL1        0.0470
      7  C          6.5080    0.1120   -0.7700 C.2     1  UNL1       -0.0470
      8  C          6.6400   -0.9250    0.1420 C.2     1  UNL1        0.0040
      9  C          5.8120    1.2280   -0.3410 C.2     1  UNL1        0.0040
     10  C          6.1090   -0.8560    1.4100 C.2     1  UNL1        0.0000
     11  C          5.2810    1.2960    0.9290 C.2     1  UNL1        0.0000
     12  C          5.4150    0.2620    1.8280 C.2     1  UNL1        0.0000
@<TRIPOS>BOND
     1     5     4    1
     2     4     2    1
     3     3     2    2
     4     2     1    1
     5     6     1    1
     6     6     7    1
     7     7     9    2
     8     7     8    1
     9     9    11    1
    10     8    10    2
    11    11    12    2
    12    10    12    1
