@<TRIPOS>MOLECULE
/home/cewinharhar/GITHUB/reincatalyze/data/processed/docking_pred/2023-Apr-25-2248_maxeplen10_maxtrainstep1000_exh16_gamma099_lrac3e-4_lrcr1e-3/325804283c972141be72207ce76252ef5fb41c17_ligand_2.pdbqt
 12 12 0 0 0
SMALL
GASTEIGER

@<TRIPOS>ATOM
      1  C          8.3860   -0.6100   -2.1830 C.3     1  UNL1        0.1270
      2  C          8.3870   -1.8930   -2.9090 C.2     1  UNL1        0.3030
      3  O          7.2860   -2.4030   -3.2500 O.2     1  UNL1       -0.2520
      4  O          9.5720   -2.5660   -3.2370 O.3     1  UNL1       -0.4810
      5  H         10.4480   -2.2000   -2.8890 H       1  UNL1        0.2960
      6  C          7.0100    0.0300   -2.1500 C.3     1  UNL1        0.0470
      7  C          6.4760    0.0730   -0.7640 C.2     1  UNL1       -0.0470
      8  C          5.8020    1.1940   -0.3000 C.2     1  UNL1        0.0040
      9  C          6.6240   -0.9730    0.1280 C.2     1  UNL1        0.0040
     10  C          5.3050    1.2690    0.9810 C.2     1  UNL1        0.0000
     11  C          6.1250   -0.8960    1.4110 C.2     1  UNL1        0.0000
     12  C          5.4590    0.2200    1.8640 C.2     1  UNL1        0.0000
@<TRIPOS>BOND
     1     3     2    2
     2     4     2    1
     3     4     5    1
     4     2     1    1
     5     1     6    1
     6     6     7    1
     7     7     8    2
     8     7     9    1
     9     8    10    1
    10     9    11    2
    11    10    12    2
    12    11    12    1
