MODEL 1
REMARK VINA RESULT:      -7.3      0.000      0.000
REMARK SMILES O=C(O)CCc1ccccc1
REMARK SMILES IDX 4 1 2 2 1 3 3 4 5 6 6 7 7 8 11 9 8 10 10 11 9 12
REMARK H PARENT 3 5
REMARK Flexibility Score: inf
ROOT
ATOM      1  C   UNL     1       8.438  -0.687  -2.099  1.00  0.00     0.127 C 
ENDROOT
BRANCH   1   2
ATOM      2  C   UNL     1       8.452  -1.931  -2.890  1.00  0.00     0.303 C 
ATOM      3  O   UNL     1       9.552  -2.514  -3.094  1.00  0.00    -0.252 OA
BRANCH   2   4
ATOM      4  O   UNL     1       7.283  -2.492  -3.424  1.00  0.00    -0.481 OA
ATOM      5  H   UNL     1       7.263  -2.720  -4.408  1.00  0.00     0.296 HD
ENDBRANCH   2   4
ENDBRANCH   1   2
BRANCH   1   6
ATOM      6  C   UNL     1       7.084  -0.001  -2.135  1.00  0.00     0.047 C 
BRANCH   6   7
ATOM      7  C   UNL     1       6.508   0.112  -0.770  1.00  0.00    -0.047 A 
ATOM      8  C   UNL     1       6.640  -0.925   0.142  1.00  0.00     0.004 A 
ATOM      9  C   UNL     1       5.812   1.228  -0.341  1.00  0.00     0.004 A 
ATOM     10  C   UNL     1       6.109  -0.856   1.410  1.00  0.00     0.000 A 
ATOM     11  C   UNL     1       5.281   1.296   0.929  1.00  0.00     0.000 A 
ATOM     12  C   UNL     1       5.415   0.262   1.828  1.00  0.00     0.000 A 
ENDBRANCH   6   7
ENDBRANCH   1   6
TORSDOF 4
ENDMDL
MODEL 2
REMARK VINA RESULT:      -7.2      0.100      1.724
REMARK SMILES O=C(O)CCc1ccccc1
REMARK SMILES IDX 4 1 2 2 1 3 3 4 5 6 6 7 7 8 11 9 8 10 10 11 9 12
REMARK H PARENT 3 5
REMARK Flexibility Score: inf
ROOT
ATOM      1  C   UNL     1       8.386  -0.610  -2.183  1.00  0.00     0.127 C 
ENDROOT
BRANCH   1   2
ATOM      2  C   UNL     1       8.387  -1.893  -2.909  1.00  0.00     0.303 C 
ATOM      3  O   UNL     1       7.286  -2.403  -3.250  1.00  0.00    -0.252 OA
BRANCH   2   4
ATOM      4  O   UNL     1       9.572  -2.566  -3.237  1.00  0.00    -0.481 OA
ATOM      5  H   UNL     1      10.448  -2.200  -2.889  1.00  0.00     0.296 HD
ENDBRANCH   2   4
ENDBRANCH   1   2
BRANCH   1   6
ATOM      6  C   UNL     1       7.010   0.030  -2.150  1.00  0.00     0.047 C 
BRANCH   6   7
ATOM      7  C   UNL     1       6.476   0.073  -0.764  1.00  0.00    -0.047 A 
ATOM      8  C   UNL     1       5.802   1.194  -0.300  1.00  0.00     0.004 A 
ATOM      9  C   UNL     1       6.624  -0.973   0.128  1.00  0.00     0.004 A 
ATOM     10  C   UNL     1       5.305   1.269   0.981  1.00  0.00     0.000 A 
ATOM     11  C   UNL     1       6.125  -0.896   1.411  1.00  0.00     0.000 A 
ATOM     12  C   UNL     1       5.459   0.220   1.864  1.00  0.00     0.000 A 
ENDBRANCH   6   7
ENDBRANCH   1   6
TORSDOF 4
ENDMDL
MODEL 3
REMARK VINA RESULT:      -6.8      3.391      5.097
REMARK SMILES O=C(O)CCc1ccccc1
REMARK SMILES IDX 4 1 2 2 1 3 3 4 5 6 6 7 7 8 11 9 8 10 10 11 9 12
REMARK H PARENT 3 5
REMARK Flexibility Score: inf
ROOT
ATOM      1  C   UNL     1       5.002   1.745   0.721  1.00  0.00     0.127 C 
ENDROOT
BRANCH   1   2
ATOM      2  C   UNL     1       4.463   1.093   1.928  1.00  0.00     0.303 C 
ATOM      3  O   UNL     1       5.135   0.183   2.484  1.00  0.00    -0.252 OA
BRANCH   2   4
ATOM      4  O   UNL     1       3.226   1.453   2.483  1.00  0.00    -0.481 OA
ATOM      5  H   UNL     1       3.216   2.081   3.275  1.00  0.00     0.296 HD
ENDBRANCH   2   4
ENDBRANCH   1   2
BRANCH   1   6
ATOM      6  C   UNL     1       6.516   1.852   0.754  1.00  0.00     0.047 C 
BRANCH   6   7
ATOM      7  C   UNL     1       7.131   1.044  -0.331  1.00  0.00    -0.047 A 
ATOM      8  C   UNL     1       8.462   1.222  -0.679  1.00  0.00     0.004 A 
ATOM      9  C   UNL     1       6.426   0.095  -1.049  1.00  0.00     0.004 A 
ATOM     10  C   UNL     1       9.058   0.497  -1.686  1.00  0.00     0.000 A 
ATOM     11  C   UNL     1       7.024  -0.630  -2.057  1.00  0.00     0.000 A 
ATOM     12  C   UNL     1       8.345  -0.447  -2.397  1.00  0.00     0.000 A 
ENDBRANCH   6   7
ENDBRANCH   1   6
TORSDOF 4
ENDMDL
MODEL 4
REMARK VINA RESULT:      -6.8      3.391      5.081
REMARK SMILES O=C(O)CCc1ccccc1
REMARK SMILES IDX 4 1 2 2 1 3 3 4 5 6 6 7 7 8 11 9 8 10 10 11 9 12
REMARK H PARENT 3 5
REMARK Flexibility Score: inf
ROOT
ATOM      1  C   UNL     1       5.018   1.758   0.703  1.00  0.00     0.127 C 
ENDROOT
BRANCH   1   2
ATOM      2  C   UNL     1       4.481   1.113   1.914  1.00  0.00     0.303 C 
ATOM      3  O   UNL     1       5.158   0.211   2.479  1.00  0.00    -0.252 OA
BRANCH   2   4
ATOM      4  O   UNL     1       3.241   1.468   2.464  1.00  0.00    -0.481 OA
ATOM      5  H   UNL     1       2.562   0.738   2.638  1.00  0.00     0.296 HD
ENDBRANCH   2   4
ENDBRANCH   1   2
BRANCH   1   6
ATOM      6  C   UNL     1       6.530   1.890   0.745  1.00  0.00     0.047 C 
BRANCH   6   7
ATOM      7  C   UNL     1       7.164   1.102  -0.344  1.00  0.00    -0.047 A 
ATOM      8  C   UNL     1       6.418   0.206  -1.096  1.00  0.00     0.004 A 
ATOM      9  C   UNL     1       8.506   1.206  -0.658  1.00  0.00     0.004 A 
ATOM     10  C   UNL     1       6.977  -0.546  -2.103  1.00  0.00     0.000 A 
ATOM     11  C   UNL     1       9.066   0.452  -1.668  1.00  0.00     0.000 A 
ATOM     12  C   UNL     1       8.319  -0.436  -2.408  1.00  0.00     0.000 A 
ENDBRANCH   6   7
ENDBRANCH   1   6
TORSDOF 4
ENDMDL
MODEL 5
REMARK VINA RESULT:      -6.6      1.878      2.852
REMARK SMILES O=C(O)CCc1ccccc1
REMARK SMILES IDX 4 1 2 2 1 3 3 4 5 6 6 7 7 8 11 9 8 10 10 11 9 12
REMARK H PARENT 3 5
REMARK Flexibility Score: inf
ROOT
ATOM      1  C   UNL     1       8.155  -1.602   1.134  1.00  0.00     0.127 C 
ENDROOT
BRANCH   1   2
ATOM      2  C   UNL     1       8.480  -2.797   0.334  1.00  0.00     0.303 C 
ATOM      3  O   UNL     1       9.131  -3.734   0.871  1.00  0.00    -0.252 OA
BRANCH   2   4
ATOM      4  O   UNL     1       8.089  -2.929  -1.006  1.00  0.00    -0.481 OA
ATOM      5  H   UNL     1       7.818  -2.098  -1.514  1.00  0.00     0.296 HD
ENDBRANCH   2   4
ENDBRANCH   1   2
BRANCH   1   6
ATOM      6  C   UNL     1       6.667  -1.481   1.405  1.00  0.00     0.047 C 
BRANCH   6   7
ATOM      7  C   UNL     1       6.127  -0.210   0.854  1.00  0.00    -0.047 A 
ATOM      8  C   UNL     1       6.397   0.165  -0.454  1.00  0.00     0.004 A 
ATOM      9  C   UNL     1       5.351   0.659   1.600  1.00  0.00     0.004 A 
ATOM     10  C   UNL     1       5.921   1.340  -0.990  1.00  0.00     0.000 A 
ATOM     11  C   UNL     1       4.875   1.835   1.062  1.00  0.00     0.000 A 
ATOM     12  C   UNL     1       5.148   2.201  -0.237  1.00  0.00     0.000 A 
ENDBRANCH   6   7
ENDBRANCH   1   6
TORSDOF 4
ENDMDL
