@<TRIPOS>MOLECULE
/home/cewinharhar/GITHUB/reincatalyze/data/processed/docking_pred/2023-Apr-25-2248_maxeplen10_maxtrainstep1000_exh16_gamma099_lrac3e-4_lrcr1e-3/325804283c972141be72207ce76252ef5fb41c17_ligand_2.pdbqt
 12 12 0 0 0
SMALL
GASTEIGER

@<TRIPOS>ATOM
      1  C          8.1550   -1.6020    1.1340 C.3     1  UNL1        0.1270
      2  C          8.4800   -2.7970    0.3340 C.2     1  UNL1        0.3030
      3  O          9.1310   -3.7340    0.8710 O.2     1  UNL1       -0.2520
      4  O          8.0890   -2.9290   -1.0060 O.3     1  UNL1       -0.4810
      5  H          7.8180   -2.0980   -1.5140 H       1  UNL1        0.2960
      6  C          6.6670   -1.4810    1.4050 C.3     1  UNL1        0.0470
      7  C          6.1270   -0.2100    0.8540 C.2     1  UNL1       -0.0470
      8  C          6.3970    0.1650   -0.4540 C.2     1  UNL1        0.0040
      9  C          5.3510    0.6590    1.6000 C.2     1  UNL1        0.0040
     10  C          5.9210    1.3400   -0.9900 C.2     1  UNL1        0.0000
     11  C          4.8750    1.8350    1.0620 C.2     1  UNL1        0.0000
     12  C          5.1480    2.2010   -0.2370 C.2     1  UNL1        0.0000
@<TRIPOS>BOND
     1     5     4    1
     2     4     2    1
     3    10     8    1
     4    10    12    2
     5     8     7    2
     6    12    11    1
     7     2     3    2
     8     2     1    1
     9     7     6    1
    10     7     9    1
    11    11     9    2
    12     1     6    1
