@<TRIPOS>MOLECULE
/home/cewinharhar/GITHUB/reincatalyze/data/processed/docking_pred/2023-Apr-25-2248_maxeplen10_maxtrainstep1000_exh16_gamma099_lrac3e-4_lrcr1e-3/325804283c972141be72207ce76252ef5fb41c17_ligand_2.pdbqt
 12 12 0 0 0
SMALL
GASTEIGER

@<TRIPOS>ATOM
      1  C          5.0020    1.7450    0.7210 C.3     1  UNL1        0.1270
      2  C          4.4630    1.0930    1.9280 C.2     1  UNL1        0.3030
      3  O          5.1350    0.1830    2.4840 O.2     1  UNL1       -0.2520
      4  O          3.2260    1.4530    2.4830 O.3     1  UNL1       -0.4810
      5  H          3.2160    2.0810    3.2750 H       1  UNL1        0.2960
      6  C          6.5160    1.8520    0.7540 C.3     1  UNL1        0.0470
      7  C          7.1310    1.0440   -0.3310 C.2     1  UNL1       -0.0470
      8  C          8.4620    1.2220   -0.6790 C.2     1  UNL1        0.0040
      9  C          6.4260    0.0950   -1.0490 C.2     1  UNL1        0.0040
     10  C          9.0580    0.4970   -1.6860 C.2     1  UNL1        0.0000
     11  C          7.0240   -0.6300   -2.0570 C.2     1  UNL1        0.0000
     12  C          8.3450   -0.4470   -2.3970 C.2     1  UNL1        0.0000
@<TRIPOS>BOND
     1    12    11    2
     2    12    10    1
     3    11     9    1
     4    10     8    2
     5     9     7    2
     6     8     7    1
     7     7     6    1
     8     1     6    1
     9     1     2    1
    10     2     4    1
    11     2     3    2
    12     4     5    1
