@<TRIPOS>MOLECULE
/home/cewinharhar/GITHUB/reincatalyze/data/processed/docking_pred/2023-Apr-25-2248_maxeplen10_maxtrainstep1000_exh16_gamma099_lrac3e-4_lrcr1e-3/325804283c972141be72207ce76252ef5fb41c17_ligand_2.pdbqt
 12 12 0 0 0
SMALL
GASTEIGER

@<TRIPOS>ATOM
      1  C          5.0180    1.7580    0.7030 C.3     1  UNL1        0.1270
      2  C          4.4810    1.1130    1.9140 C.2     1  UNL1        0.3030
      3  O          5.1580    0.2110    2.4790 O.2     1  UNL1       -0.2520
      4  O          3.2410    1.4680    2.4640 O.3     1  UNL1       -0.4810
      5  H          2.5620    0.7380    2.6380 H       1  UNL1        0.2960
      6  C          6.5300    1.8900    0.7450 C.3     1  UNL1        0.0470
      7  C          7.1640    1.1020   -0.3440 C.2     1  UNL1       -0.0470
      8  C          6.4180    0.2060   -1.0960 C.2     1  UNL1        0.0040
      9  C          8.5060    1.2060   -0.6580 C.2     1  UNL1        0.0040
     10  C          6.9770   -0.5460   -2.1030 C.2     1  UNL1        0.0000
     11  C          9.0660    0.4520   -1.6680 C.2     1  UNL1        0.0000
     12  C          8.3190   -0.4360   -2.4080 C.2     1  UNL1        0.0000
@<TRIPOS>BOND
     1    12    10    2
     2    12    11    1
     3    10     8    1
     4    11     9    2
     5     8     7    2
     6     9     7    1
     7     7     6    1
     8     1     6    1
     9     1     2    1
    10     2     4    1
    11     2     3    2
    12     4     5    1
