@<TRIPOS>MOLECULE
/home/cewinharhar/GITHUB/reincatalyze/data/processed/docking_pred/2023-Apr-25-2248_maxeplen10_maxtrainstep1000_exh16_gamma099_lrac3e-4_lrcr1e-3/32925d028e6f827171d23f19599134de0355568e_ligand_2.pdbqt
 12 12 0 0 0
SMALL
GASTEIGER

@<TRIPOS>ATOM
      1  C          5.0030    1.7780    0.7280 C.3     1  UNL1        0.1270
      2  C          4.4680    1.1120    1.9290 C.2     1  UNL1        0.3030
      3  O          5.1480    0.2040    2.4800 O.2     1  UNL1       -0.2520
      4  O          3.2260    1.4540    2.4840 O.3     1  UNL1       -0.4810
      5  H          2.6560    0.7200    2.8820 H       1  UNL1        0.2960
      6  C          6.5150    1.9070    0.7690 C.3     1  UNL1        0.0470
      7  C          7.1450    1.1230   -0.3250 C.2     1  UNL1       -0.0470
      8  C          6.3960    0.2320   -1.0800 C.2     1  UNL1        0.0040
      9  C          8.4870    1.2260   -0.6420 C.2     1  UNL1        0.0040
     10  C          6.9520   -0.5160   -2.0930 C.2     1  UNL1        0.0000
     11  C          9.0430    0.4760   -1.6570 C.2     1  UNL1        0.0000
     12  C          8.2930   -0.4070   -2.4000 C.2     1  UNL1        0.0000
@<TRIPOS>BOND
     1    12    10    2
     2    12    11    1
     3    10     8    1
     4    11     9    2
     5     8     7    2
     6     9     7    1
     7     7     6    1
     8     1     6    1
     9     1     2    1
    10     2     3    2
    11     2     4    1
    12     4     5    1
