@<TRIPOS>MOLECULE
/home/cewinharhar/GITHUB/reincatalyze/data/processed/docking_pred/2023-Apr-25-2248_maxeplen10_maxtrainstep1000_exh16_gamma099_lrac3e-4_lrcr1e-3/32925d028e6f827171d23f19599134de0355568e_ligand_2.pdbqt
 12 12 0 0 0
SMALL
GASTEIGER

@<TRIPOS>ATOM
      1  C          8.5090    0.6510   -1.7290 C.3     1  UNL1        0.1270
      2  C          9.6540    0.2980   -0.8710 C.2     1  UNL1        0.3030
      3  O          9.4770   -0.5050    0.0850 O.2     1  UNL1       -0.2520
      4  O         10.9370    0.8230   -1.0820 O.3     1  UNL1       -0.4810
      5  H         11.1240    1.7730   -0.7910 H       1  UNL1        0.2960
      6  C          7.3150   -0.2570   -1.4970 C.3     1  UNL1        0.0470
      7  C          6.4330    0.2850   -0.4310 C.2     1  UNL1       -0.0470
      8  C          5.7880    1.5020   -0.5970 C.2     1  UNL1        0.0040
      9  C          6.2140   -0.3720    0.7660 C.2     1  UNL1        0.0040
     10  C          4.9730    2.0360    0.3750 C.2     1  UNL1        0.0000
     11  C          5.3980    0.1640    1.7380 C.2     1  UNL1        0.0000
     12  C          4.7630    1.3730    1.5670 C.2     1  UNL1        0.0000
@<TRIPOS>BOND
     1     1     6    1
     2     1     2    1
     3     6     7    1
     4     4     2    1
     5     4     5    1
     6     2     3    2
     7     8     7    2
     8     8    10    1
     9     7     9    1
    10    10    12    2
    11     9    11    2
    12    12    11    1
