MODEL 1
REMARK VINA RESULT:      -7.3      0.000      0.000
REMARK SMILES O=C(O)CCc1ccccc1
REMARK SMILES IDX 4 1 2 2 1 3 3 4 5 6 6 7 7 8 11 9 8 10 10 11 9 12
REMARK H PARENT 3 5
REMARK Flexibility Score: inf
ROOT
ATOM      1  C   UNL     1       8.403  -0.642  -2.128  1.00  0.00     0.127 C 
ENDROOT
BRANCH   1   2
ATOM      2  C   UNL     1       8.430  -1.898  -2.897  1.00  0.00     0.303 C 
ATOM      3  O   UNL     1       9.534  -2.479  -3.082  1.00  0.00    -0.252 OA
BRANCH   2   4
ATOM      4  O   UNL     1       7.268  -2.473  -3.431  1.00  0.00    -0.481 OA
ATOM      5  H   UNL     1       6.427  -2.476  -2.869  1.00  0.00     0.296 HD
ENDBRANCH   2   4
ENDBRANCH   1   2
BRANCH   1   6
ATOM      6  C   UNL     1       7.023  -0.008  -2.113  1.00  0.00     0.047 C 
BRANCH   6   7
ATOM      7  C   UNL     1       6.491   0.077  -0.727  1.00  0.00    -0.047 A 
ATOM      8  C   UNL     1       6.618  -0.994   0.146  1.00  0.00     0.004 A 
ATOM      9  C   UNL     1       5.844   1.198  -0.241  1.00  0.00     0.004 A 
ATOM     10  C   UNL     1       6.127  -0.951   1.431  1.00  0.00     0.000 A 
ATOM     11  C   UNL     1       5.353   1.240   1.046  1.00  0.00     0.000 A 
ATOM     12  C   UNL     1       5.481   0.173   1.906  1.00  0.00     0.000 A 
ENDBRANCH   6   7
ENDBRANCH   1   6
TORSDOF 4
ENDMDL
MODEL 2
REMARK VINA RESULT:      -7.3      0.183      1.727
REMARK SMILES O=C(O)CCc1ccccc1
REMARK SMILES IDX 4 1 2 2 1 3 3 4 5 6 6 7 7 8 11 9 8 10 10 11 9 12
REMARK H PARENT 3 5
REMARK Flexibility Score: inf
ROOT
ATOM      1  C   UNL     1       8.458  -0.694  -2.059  1.00  0.00     0.127 C 
ENDROOT
BRANCH   1   2
ATOM      2  C   UNL     1       8.426  -1.929  -2.864  1.00  0.00     0.303 C 
ATOM      3  O   UNL     1       7.311  -2.409  -3.205  1.00  0.00    -0.252 OA
BRANCH   2   4
ATOM      4  O   UNL     1       9.596  -2.589  -3.266  1.00  0.00    -0.481 OA
ATOM      5  H   UNL     1      10.472  -2.326  -2.835  1.00  0.00     0.296 HD
ENDBRANCH   2   4
ENDBRANCH   1   2
BRANCH   1   6
ATOM      6  C   UNL     1       7.140   0.058  -2.111  1.00  0.00     0.047 C 
BRANCH   6   7
ATOM      7  C   UNL     1       6.523   0.145  -0.761  1.00  0.00    -0.047 A 
ATOM      8  C   UNL     1       5.820   1.277  -0.376  1.00  0.00     0.004 A 
ATOM      9  C   UNL     1       6.620  -0.870   0.173  1.00  0.00     0.004 A 
ATOM     10  C   UNL     1       5.246   1.393   0.869  1.00  0.00     0.000 A 
ATOM     11  C   UNL     1       6.045  -0.753   1.420  1.00  0.00     0.000 A 
ATOM     12  C   UNL     1       5.350   0.374   1.795  1.00  0.00     0.000 A 
ENDBRANCH   6   7
ENDBRANCH   1   6
TORSDOF 4
ENDMDL
MODEL 3
REMARK VINA RESULT:      -6.8      3.395      5.076
REMARK SMILES O=C(O)CCc1ccccc1
REMARK SMILES IDX 4 1 2 2 1 3 3 4 5 6 6 7 7 8 11 9 8 10 10 11 9 12
REMARK H PARENT 3 5
REMARK Flexibility Score: inf
ROOT
ATOM      1  C   UNL     1       5.003   1.778   0.728  1.00  0.00     0.127 C 
ENDROOT
BRANCH   1   2
ATOM      2  C   UNL     1       4.468   1.112   1.929  1.00  0.00     0.303 C 
ATOM      3  O   UNL     1       5.148   0.204   2.480  1.00  0.00    -0.252 OA
BRANCH   2   4
ATOM      4  O   UNL     1       3.226   1.454   2.484  1.00  0.00    -0.481 OA
ATOM      5  H   UNL     1       2.656   0.720   2.882  1.00  0.00     0.296 HD
ENDBRANCH   2   4
ENDBRANCH   1   2
BRANCH   1   6
ATOM      6  C   UNL     1       6.515   1.907   0.769  1.00  0.00     0.047 C 
BRANCH   6   7
ATOM      7  C   UNL     1       7.145   1.123  -0.325  1.00  0.00    -0.047 A 
ATOM      8  C   UNL     1       6.396   0.232  -1.080  1.00  0.00     0.004 A 
ATOM      9  C   UNL     1       8.487   1.226  -0.642  1.00  0.00     0.004 A 
ATOM     10  C   UNL     1       6.952  -0.516  -2.093  1.00  0.00     0.000 A 
ATOM     11  C   UNL     1       9.043   0.476  -1.657  1.00  0.00     0.000 A 
ATOM     12  C   UNL     1       8.293  -0.407  -2.400  1.00  0.00     0.000 A 
ENDBRANCH   6   7
ENDBRANCH   1   6
TORSDOF 4
ENDMDL
MODEL 4
REMARK VINA RESULT:      -6.6      1.872      2.928
REMARK SMILES O=C(O)CCc1ccccc1
REMARK SMILES IDX 4 1 2 2 1 3 3 4 5 6 6 7 7 8 11 9 8 10 10 11 9 12
REMARK H PARENT 3 5
REMARK Flexibility Score: inf
ROOT
ATOM      1  C   UNL     1       8.115  -1.601   1.162  1.00  0.00     0.127 C 
ENDROOT
BRANCH   1   2
ATOM      2  C   UNL     1       8.462  -2.762   0.323  1.00  0.00     0.303 C 
ATOM      3  O   UNL     1       9.142  -3.698   0.825  1.00  0.00    -0.252 OA
BRANCH   2   4
ATOM      4  O   UNL     1       8.060  -2.864  -1.016  1.00  0.00    -0.481 OA
ATOM      5  H   UNL     1       8.276  -3.712  -1.523  1.00  0.00     0.296 HD
ENDBRANCH   2   4
ENDBRANCH   1   2
BRANCH   1   6
ATOM      6  C   UNL     1       6.616  -1.462   1.357  1.00  0.00     0.047 C 
BRANCH   6   7
ATOM      7  C   UNL     1       6.122  -0.179   0.791  1.00  0.00    -0.047 A 
ATOM      8  C   UNL     1       5.355   0.684   1.560  1.00  0.00     0.004 A 
ATOM      9  C   UNL     1       6.383   0.215  -0.508  1.00  0.00     0.004 A 
ATOM     10  C   UNL     1       4.873   1.874   1.062  1.00  0.00     0.000 A 
ATOM     11  C   UNL     1       5.900   1.407  -1.005  1.00  0.00     0.000 A 
ATOM     12  C   UNL     1       5.139   2.258  -0.237  1.00  0.00     0.000 A 
ENDBRANCH   6   7
ENDBRANCH   1   6
TORSDOF 4
ENDMDL
MODEL 5
REMARK VINA RESULT:      -6.6      2.044      2.745
REMARK SMILES O=C(O)CCc1ccccc1
REMARK SMILES IDX 4 1 2 2 1 3 3 4 5 6 6 7 7 8 11 9 8 10 10 11 9 12
REMARK H PARENT 3 5
REMARK Flexibility Score: inf
ROOT
ATOM      1  C   UNL     1       8.509   0.651  -1.729  1.00  0.00     0.127 C 
ENDROOT
BRANCH   1   2
ATOM      2  C   UNL     1       9.654   0.298  -0.871  1.00  0.00     0.303 C 
ATOM      3  O   UNL     1       9.477  -0.505   0.085  1.00  0.00    -0.252 OA
BRANCH   2   4
ATOM      4  O   UNL     1      10.937   0.823  -1.082  1.00  0.00    -0.481 OA
ATOM      5  H   UNL     1      11.124   1.773  -0.791  1.00  0.00     0.296 HD
ENDBRANCH   2   4
ENDBRANCH   1   2
BRANCH   1   6
ATOM      6  C   UNL     1       7.315  -0.257  -1.497  1.00  0.00     0.047 C 
BRANCH   6   7
ATOM      7  C   UNL     1       6.433   0.285  -0.431  1.00  0.00    -0.047 A 
ATOM      8  C   UNL     1       5.788   1.502  -0.597  1.00  0.00     0.004 A 
ATOM      9  C   UNL     1       6.214  -0.372   0.766  1.00  0.00     0.004 A 
ATOM     10  C   UNL     1       4.973   2.036   0.375  1.00  0.00     0.000 A 
ATOM     11  C   UNL     1       5.398   0.164   1.738  1.00  0.00     0.000 A 
ATOM     12  C   UNL     1       4.763   1.373   1.567  1.00  0.00     0.000 A 
ENDBRANCH   6   7
ENDBRANCH   1   6
TORSDOF 4
ENDMDL
