@<TRIPOS>MOLECULE
/home/cewinharhar/GITHUB/reincatalyze/data/processed/docking_pred/2023-Apr-25-2248_maxeplen10_maxtrainstep1000_exh16_gamma099_lrac3e-4_lrcr1e-3/32925d028e6f827171d23f19599134de0355568e_ligand_2.pdbqt
 12 12 0 0 0
SMALL
GASTEIGER

@<TRIPOS>ATOM
      1  C          8.1150   -1.6010    1.1620 C.3     1  UNL1        0.1270
      2  C          8.4620   -2.7620    0.3230 C.2     1  UNL1        0.3030
      3  O          9.1420   -3.6980    0.8250 O.2     1  UNL1       -0.2520
      4  O          8.0600   -2.8640   -1.0160 O.3     1  UNL1       -0.4810
      5  H          8.2760   -3.7120   -1.5230 H       1  UNL1        0.2960
      6  C          6.6160   -1.4620    1.3570 C.3     1  UNL1        0.0470
      7  C          6.1220   -0.1790    0.7910 C.2     1  UNL1       -0.0470
      8  C          5.3550    0.6840    1.5600 C.2     1  UNL1        0.0040
      9  C          6.3830    0.2150   -0.5080 C.2     1  UNL1        0.0040
     10  C          4.8730    1.8740    1.0620 C.2     1  UNL1        0.0000
     11  C          5.9000    1.4070   -1.0050 C.2     1  UNL1        0.0000
     12  C          5.1390    2.2580   -0.2370 C.2     1  UNL1        0.0000
@<TRIPOS>BOND
     1     5     4    1
     2     4     2    1
     3    11     9    1
     4    11    12    2
     5     9     7    2
     6    12    10    1
     7     2     3    2
     8     2     1    1
     9     7     6    1
    10     7     8    1
    11    10     8    2
    12     1     6    1
