@<TRIPOS>MOLECULE
/home/cewinharhar/GITHUB/reincatalyze/data/processed/docking_pred/2023-Apr-25-2248_maxeplen10_maxtrainstep1000_exh16_gamma099_lrac3e-4_lrcr1e-3/32925d028e6f827171d23f19599134de0355568e_ligand_2.pdbqt
 12 12 0 0 0
SMALL
GASTEIGER

@<TRIPOS>ATOM
      1  C          8.4030   -0.6420   -2.1280 C.3     1  UNL1        0.1270
      2  C          8.4300   -1.8980   -2.8970 C.2     1  UNL1        0.3030
      3  O          9.5340   -2.4790   -3.0820 O.2     1  UNL1       -0.2520
      4  O          7.2680   -2.4730   -3.4310 O.3     1  UNL1       -0.4810
      5  H          6.4270   -2.4760   -2.8690 H       1  UNL1        0.2960
      6  C          7.0230   -0.0080   -2.1130 C.3     1  UNL1        0.0470
      7  C          6.4910    0.0770   -0.7270 C.2     1  UNL1       -0.0470
      8  C          6.6180   -0.9940    0.1460 C.2     1  UNL1        0.0040
      9  C          5.8440    1.1980   -0.2410 C.2     1  UNL1        0.0040
     10  C          6.1270   -0.9510    1.4310 C.2     1  UNL1        0.0000
     11  C          5.3530    1.2400    1.0460 C.2     1  UNL1        0.0000
     12  C          5.4810    0.1730    1.9060 C.2     1  UNL1        0.0000
@<TRIPOS>BOND
     1     4     2    1
     2     4     5    1
     3     3     2    2
     4     2     1    1
     5     1     6    1
     6     6     7    1
     7     7     9    2
     8     7     8    1
     9     9    11    1
    10     8    10    2
    11    11    12    2
    12    10    12    1
