@<TRIPOS>MOLECULE
/home/cewinharhar/GITHUB/reincatalyze/data/processed/docking_pred/2023-Apr-25-2248_maxeplen10_maxtrainstep1000_exh16_gamma099_lrac3e-4_lrcr1e-3/32925d028e6f827171d23f19599134de0355568e_ligand_2.pdbqt
 12 12 0 0 0
SMALL
GASTEIGER

@<TRIPOS>ATOM
      1  C          8.4580   -0.6940   -2.0590 C.3     1  UNL1        0.1270
      2  C          8.4260   -1.9290   -2.8640 C.2     1  UNL1        0.3030
      3  O          7.3110   -2.4090   -3.2050 O.2     1  UNL1       -0.2520
      4  O          9.5960   -2.5890   -3.2660 O.3     1  UNL1       -0.4810
      5  H         10.4720   -2.3260   -2.8350 H       1  UNL1        0.2960
      6  C          7.1400    0.0580   -2.1110 C.3     1  UNL1        0.0470
      7  C          6.5230    0.1450   -0.7610 C.2     1  UNL1       -0.0470
      8  C          5.8200    1.2770   -0.3760 C.2     1  UNL1        0.0040
      9  C          6.6200   -0.8700    0.1730 C.2     1  UNL1        0.0040
     10  C          5.2460    1.3930    0.8690 C.2     1  UNL1        0.0000
     11  C          6.0450   -0.7530    1.4200 C.2     1  UNL1        0.0000
     12  C          5.3500    0.3740    1.7950 C.2     1  UNL1        0.0000
@<TRIPOS>BOND
     1     4     2    1
     2     4     5    1
     3     3     2    2
     4     2     1    1
     5     6     1    1
     6     6     7    1
     7     7     8    2
     8     7     9    1
     9     8    10    1
    10     9    11    2
    11    10    12    2
    12    11    12    1
