@<TRIPOS>MOLECULE
/home/cewinharhar/GITHUB/reincatalyze/data/processed/docking_pred/2023-Apr-25-2248_maxeplen10_maxtrainstep1000_exh16_gamma099_lrac3e-4_lrcr1e-3/354626f0a3e222b5e9865005b72eb67019ec4e19_ligand_2.pdbqt
 12 12 0 0 0
SMALL
GASTEIGER

@<TRIPOS>ATOM
      1  C          4.9980    1.7430    0.6930 C.3     1  UNL1        0.1270
      2  C          4.4810    1.1050    1.9170 C.2     1  UNL1        0.3030
      3  O          5.1750    0.2190    2.4850 O.2     1  UNL1       -0.2520
      4  O          3.2420    1.4510    2.4740 O.3     1  UNL1       -0.4810
      5  H          2.9470    2.4180    2.4360 H       1  UNL1        0.2960
      6  C          6.5100    1.8850    0.7150 C.3     1  UNL1        0.0470
      7  C          7.1370    1.0680   -0.3570 C.2     1  UNL1       -0.0470
      8  C          8.4900    1.1880   -0.6390 C.2     1  UNL1        0.0040
      9  C          6.4220    0.1690   -1.1270 C.2     1  UNL1        0.0040
     10  C          9.0980    0.4540   -1.6310 C.2     1  UNL1        0.0000
     11  C          7.0320   -0.5660   -2.1210 C.2     1  UNL1        0.0000
     12  C          8.3750   -0.4410   -2.3950 C.2     1  UNL1        0.0000
@<TRIPOS>BOND
     1    12    11    2
     2    12    10    1
     3    11     9    1
     4    10     8    2
     5     9     7    2
     6     8     7    1
     7     7     6    1
     8     1     6    1
     9     1     2    1
    10     2     4    1
    11     2     3    2
    12     5     4    1
