MODEL 1
REMARK VINA RESULT:      -7.3      0.000      0.000
REMARK SMILES O=C(O)CCc1ccccc1
REMARK SMILES IDX 4 1 2 2 1 3 3 4 5 6 6 7 7 8 11 9 8 10 10 11 9 12
REMARK H PARENT 3 5
REMARK Flexibility Score: inf
ROOT
ATOM      1  C   UNL     1       8.411  -0.582  -2.204  1.00  0.00     0.127 C 
ENDROOT
BRANCH   1   2
ATOM      2  C   UNL     1       8.447  -1.863  -2.933  1.00  0.00     0.303 C 
ATOM      3  O   UNL     1       9.559  -2.426  -3.125  1.00  0.00    -0.252 OA
BRANCH   2   4
ATOM      4  O   UNL     1       7.285  -2.479  -3.419  1.00  0.00    -0.481 OA
ATOM      5  H   UNL     1       6.398  -2.013  -3.286  1.00  0.00     0.296 HD
ENDBRANCH   2   4
ENDBRANCH   1   2
BRANCH   1   6
ATOM      6  C   UNL     1       7.024   0.034  -2.195  1.00  0.00     0.047 C 
BRANCH   6   7
ATOM      7  C   UNL     1       6.488   0.122  -0.812  1.00  0.00    -0.047 A 
ATOM      8  C   UNL     1       5.846   1.271  -0.373  1.00  0.00     0.004 A 
ATOM      9  C   UNL     1       6.605  -0.909   0.103  1.00  0.00     0.004 A 
ATOM     10  C   UNL     1       5.349   1.387   0.905  1.00  0.00     0.000 A 
ATOM     11  C   UNL     1       6.107  -0.791   1.382  1.00  0.00     0.000 A 
ATOM     12  C   UNL     1       5.472   0.353   1.811  1.00  0.00     0.000 A 
ENDBRANCH   6   7
ENDBRANCH   1   6
TORSDOF 4
ENDMDL
MODEL 2
REMARK VINA RESULT:      -7.3      0.181      1.729
REMARK SMILES O=C(O)CCc1ccccc1
REMARK SMILES IDX 4 1 2 2 1 3 3 4 5 6 6 7 7 8 11 9 8 10 10 11 9 12
REMARK H PARENT 3 5
REMARK Flexibility Score: inf
ROOT
ATOM      1  C   UNL     1       8.382  -0.759  -1.986  1.00  0.00     0.127 C 
ENDROOT
BRANCH   1   2
ATOM      2  C   UNL     1       8.384  -1.949  -2.855  1.00  0.00     0.303 C 
ATOM      3  O   UNL     1       7.284  -2.414  -3.259  1.00  0.00    -0.252 OA
BRANCH   2   4
ATOM      4  O   UNL     1       9.570  -2.583  -3.251  1.00  0.00    -0.481 OA
ATOM      5  H   UNL     1       9.559  -3.150  -4.088  1.00  0.00     0.296 HD
ENDBRANCH   2   4
ENDBRANCH   1   2
BRANCH   1   6
ATOM      6  C   UNL     1       7.084   0.023  -2.086  1.00  0.00     0.047 C 
BRANCH   6   7
ATOM      7  C   UNL     1       6.465   0.200  -0.746  1.00  0.00    -0.047 A 
ATOM      8  C   UNL     1       6.582  -0.786   0.224  1.00  0.00     0.004 A 
ATOM      9  C   UNL     1       5.743   1.327  -0.399  1.00  0.00     0.004 A 
ATOM     10  C   UNL     1       6.012  -0.656   1.469  1.00  0.00     0.000 A 
ATOM     11  C   UNL     1       5.172   1.455   0.849  1.00  0.00     0.000 A 
ATOM     12  C   UNL     1       5.292   0.472   1.806  1.00  0.00     0.000 A 
ENDBRANCH   6   7
ENDBRANCH   1   6
TORSDOF 4
ENDMDL
MODEL 3
REMARK VINA RESULT:      -6.8      3.381      5.067
REMARK SMILES O=C(O)CCc1ccccc1
REMARK SMILES IDX 4 1 2 2 1 3 3 4 5 6 6 7 7 8 11 9 8 10 10 11 9 12
REMARK H PARENT 3 5
REMARK Flexibility Score: inf
ROOT
ATOM      1  C   UNL     1       4.998   1.743   0.693  1.00  0.00     0.127 C 
ENDROOT
BRANCH   1   2
ATOM      2  C   UNL     1       4.481   1.105   1.917  1.00  0.00     0.303 C 
ATOM      3  O   UNL     1       5.175   0.219   2.485  1.00  0.00    -0.252 OA
BRANCH   2   4
ATOM      4  O   UNL     1       3.242   1.451   2.474  1.00  0.00    -0.481 OA
ATOM      5  H   UNL     1       2.947   2.418   2.436  1.00  0.00     0.296 HD
ENDBRANCH   2   4
ENDBRANCH   1   2
BRANCH   1   6
ATOM      6  C   UNL     1       6.510   1.885   0.715  1.00  0.00     0.047 C 
BRANCH   6   7
ATOM      7  C   UNL     1       7.137   1.068  -0.357  1.00  0.00    -0.047 A 
ATOM      8  C   UNL     1       8.490   1.188  -0.639  1.00  0.00     0.004 A 
ATOM      9  C   UNL     1       6.422   0.169  -1.127  1.00  0.00     0.004 A 
ATOM     10  C   UNL     1       9.098   0.454  -1.631  1.00  0.00     0.000 A 
ATOM     11  C   UNL     1       7.032  -0.566  -2.121  1.00  0.00     0.000 A 
ATOM     12  C   UNL     1       8.375  -0.441  -2.395  1.00  0.00     0.000 A 
ENDBRANCH   6   7
ENDBRANCH   1   6
TORSDOF 4
ENDMDL
MODEL 4
REMARK VINA RESULT:      -6.7      1.958      2.354
REMARK SMILES O=C(O)CCc1ccccc1
REMARK SMILES IDX 4 1 2 2 1 3 3 4 5 6 6 7 7 8 11 9 8 10 10 11 9 12
REMARK H PARENT 3 5
REMARK Flexibility Score: inf
ROOT
ATOM      1  C   UNL     1       8.318   0.232  -2.162  1.00  0.00     0.127 C 
ENDROOT
BRANCH   1   2
ATOM      2  C   UNL     1       9.437   0.369  -1.213  1.00  0.00     0.303 C 
ATOM      3  O   UNL     1       9.468  -0.370  -0.191  1.00  0.00    -0.252 OA
BRANCH   2   4
ATOM      4  O   UNL     1      10.473   1.294  -1.406  1.00  0.00    -0.481 OA
ATOM      5  H   UNL     1      11.402   0.946  -1.603  1.00  0.00     0.296 HD
ENDBRANCH   2   4
ENDBRANCH   1   2
BRANCH   1   6
ATOM      6  C   UNL     1       7.170  -0.573  -1.582  1.00  0.00     0.047 C 
BRANCH   6   7
ATOM      7  C   UNL     1       6.371   0.245  -0.633  1.00  0.00    -0.047 A 
ATOM      8  C   UNL     1       5.841   1.466  -1.024  1.00  0.00     0.004 A 
ATOM      9  C   UNL     1       6.122  -0.149   0.669  1.00  0.00     0.004 A 
ATOM     10  C   UNL     1       5.106   2.252  -0.166  1.00  0.00     0.000 A 
ATOM     11  C   UNL     1       5.386   0.639   1.527  1.00  0.00     0.000 A 
ATOM     12  C   UNL     1       4.865   1.851   1.133  1.00  0.00     0.000 A 
ENDBRANCH   6   7
ENDBRANCH   1   6
TORSDOF 4
ENDMDL
MODEL 5
REMARK VINA RESULT:      -6.6      1.893      2.867
REMARK SMILES O=C(O)CCc1ccccc1
REMARK SMILES IDX 4 1 2 2 1 3 3 4 5 6 6 7 7 8 11 9 8 10 10 11 9 12
REMARK H PARENT 3 5
REMARK Flexibility Score: inf
ROOT
ATOM      1  C   UNL     1       8.160  -1.655   1.148  1.00  0.00     0.127 C 
ENDROOT
BRANCH   1   2
ATOM      2  C   UNL     1       8.495  -2.827   0.319  1.00  0.00     0.303 C 
ATOM      3  O   UNL     1       9.173  -3.762   0.826  1.00  0.00    -0.252 OA
BRANCH   2   4
ATOM      4  O   UNL     1       8.085  -2.940  -1.017  1.00  0.00    -0.481 OA
ATOM      5  H   UNL     1       7.291  -2.395  -1.327  1.00  0.00     0.296 HD
ENDBRANCH   2   4
ENDBRANCH   1   2
BRANCH   1   6
ATOM      6  C   UNL     1       6.664  -1.516   1.365  1.00  0.00     0.047 C 
BRANCH   6   7
ATOM      7  C   UNL     1       6.160  -0.237   0.799  1.00  0.00    -0.047 A 
ATOM      8  C   UNL     1       5.397   0.627   1.570  1.00  0.00     0.004 A 
ATOM      9  C   UNL     1       6.408   0.153  -0.505  1.00  0.00     0.004 A 
ATOM     10  C   UNL     1       4.907   1.812   1.072  1.00  0.00     0.000 A 
ATOM     11  C   UNL     1       5.917   1.340  -1.003  1.00  0.00     0.000 A 
ATOM     12  C   UNL     1       5.159   2.192  -0.231  1.00  0.00     0.000 A 
ENDBRANCH   6   7
ENDBRANCH   1   6
TORSDOF 4
ENDMDL
