@<TRIPOS>MOLECULE
/home/cewinharhar/GITHUB/reincatalyze/data/processed/docking_pred/2023-Apr-25-2248_maxeplen10_maxtrainstep1000_exh16_gamma099_lrac3e-4_lrcr1e-3/354626f0a3e222b5e9865005b72eb67019ec4e19_ligand_2.pdbqt
 12 12 0 0 0
SMALL
GASTEIGER

@<TRIPOS>ATOM
      1  C          8.4110   -0.5820   -2.2040 C.3     1  UNL1        0.1270
      2  C          8.4470   -1.8630   -2.9330 C.2     1  UNL1        0.3030
      3  O          9.5590   -2.4260   -3.1250 O.2     1  UNL1       -0.2520
      4  O          7.2850   -2.4790   -3.4190 O.3     1  UNL1       -0.4810
      5  H          6.3980   -2.0130   -3.2860 H       1  UNL1        0.2960
      6  C          7.0240    0.0340   -2.1950 C.3     1  UNL1        0.0470
      7  C          6.4880    0.1220   -0.8120 C.2     1  UNL1       -0.0470
      8  C          5.8460    1.2710   -0.3730 C.2     1  UNL1        0.0040
      9  C          6.6050   -0.9090    0.1030 C.2     1  UNL1        0.0040
     10  C          5.3490    1.3870    0.9050 C.2     1  UNL1        0.0000
     11  C          6.1070   -0.7910    1.3820 C.2     1  UNL1        0.0000
     12  C          5.4720    0.3530    1.8110 C.2     1  UNL1        0.0000
@<TRIPOS>BOND
     1     4     5    1
     2     4     2    1
     3     3     2    2
     4     2     1    1
     5     1     6    1
     6     6     7    1
     7     7     8    2
     8     7     9    1
     9     8    10    1
    10     9    11    2
    11    10    12    2
    12    11    12    1
