@<TRIPOS>MOLECULE
/home/cewinharhar/GITHUB/reincatalyze/data/processed/docking_pred/2023-Apr-25-2248_maxeplen10_maxtrainstep1000_exh16_gamma099_lrac3e-4_lrcr1e-3/354626f0a3e222b5e9865005b72eb67019ec4e19_ligand_2.pdbqt
 12 12 0 0 0
SMALL
GASTEIGER

@<TRIPOS>ATOM
      1  C          8.1600   -1.6550    1.1480 C.3     1  UNL1        0.1270
      2  C          8.4950   -2.8270    0.3190 C.2     1  UNL1        0.3030
      3  O          9.1730   -3.7620    0.8260 O.2     1  UNL1       -0.2520
      4  O          8.0850   -2.9400   -1.0170 O.3     1  UNL1       -0.4810
      5  H          7.2910   -2.3950   -1.3270 H       1  UNL1        0.2960
      6  C          6.6640   -1.5160    1.3650 C.3     1  UNL1        0.0470
      7  C          6.1600   -0.2370    0.7990 C.2     1  UNL1       -0.0470
      8  C          5.3970    0.6270    1.5700 C.2     1  UNL1        0.0040
      9  C          6.4080    0.1530   -0.5050 C.2     1  UNL1        0.0040
     10  C          4.9070    1.8120    1.0720 C.2     1  UNL1        0.0000
     11  C          5.9170    1.3400   -1.0030 C.2     1  UNL1        0.0000
     12  C          5.1590    2.1920   -0.2310 C.2     1  UNL1        0.0000
@<TRIPOS>BOND
     1     5     4    1
     2     4     2    1
     3    11     9    1
     4    11    12    2
     5     9     7    2
     6    12    10    1
     7     2     3    2
     8     2     1    1
     9     7     6    1
    10     7     8    1
    11    10     8    2
    12     1     6    1
