@<TRIPOS>MOLECULE
/home/cewinharhar/GITHUB/reincatalyze/data/processed/docking_pred/2023-Apr-25-2248_maxeplen10_maxtrainstep1000_exh16_gamma099_lrac3e-4_lrcr1e-3/354626f0a3e222b5e9865005b72eb67019ec4e19_ligand_2.pdbqt
 12 12 0 0 0
SMALL
GASTEIGER

@<TRIPOS>ATOM
      1  C          8.3180    0.2320   -2.1620 C.3     1  UNL1        0.1270
      2  C          9.4370    0.3690   -1.2130 C.2     1  UNL1        0.3030
      3  O          9.4680   -0.3700   -0.1910 O.2     1  UNL1       -0.2520
      4  O         10.4730    1.2940   -1.4060 O.3     1  UNL1       -0.4810
      5  H         11.4020    0.9460   -1.6030 H       1  UNL1        0.2960
      6  C          7.1700   -0.5730   -1.5820 C.3     1  UNL1        0.0470
      7  C          6.3710    0.2450   -0.6330 C.2     1  UNL1       -0.0470
      8  C          5.8410    1.4660   -1.0240 C.2     1  UNL1        0.0040
      9  C          6.1220   -0.1490    0.6690 C.2     1  UNL1        0.0040
     10  C          5.1060    2.2520   -0.1660 C.2     1  UNL1        0.0000
     11  C          5.3860    0.6390    1.5270 C.2     1  UNL1        0.0000
     12  C          4.8650    1.8510    1.1330 C.2     1  UNL1        0.0000
@<TRIPOS>BOND
     1     1     6    1
     2     1     2    1
     3     5     4    1
     4     6     7    1
     5     4     2    1
     6     2     3    2
     7     8     7    2
     8     8    10    1
     9     7     9    1
    10    10    12    2
    11     9    11    2
    12    12    11    1
