@<TRIPOS>MOLECULE
/home/cewinharhar/GITHUB/reincatalyze/data/processed/docking_pred/2023-Apr-25-2248_maxeplen10_maxtrainstep1000_exh16_gamma099_lrac3e-4_lrcr1e-3/354626f0a3e222b5e9865005b72eb67019ec4e19_ligand_2.pdbqt
 12 12 0 0 0
SMALL
GASTEIGER

@<TRIPOS>ATOM
      1  C          8.3820   -0.7590   -1.9860 C.3     1  UNL1        0.1270
      2  C          8.3840   -1.9490   -2.8550 C.2     1  UNL1        0.3030
      3  O          7.2840   -2.4140   -3.2590 O.2     1  UNL1       -0.2520
      4  O          9.5700   -2.5830   -3.2510 O.3     1  UNL1       -0.4810
      5  H          9.5590   -3.1500   -4.0880 H       1  UNL1        0.2960
      6  C          7.0840    0.0230   -2.0860 C.3     1  UNL1        0.0470
      7  C          6.4650    0.2000   -0.7460 C.2     1  UNL1       -0.0470
      8  C          6.5820   -0.7860    0.2240 C.2     1  UNL1        0.0040
      9  C          5.7430    1.3270   -0.3990 C.2     1  UNL1        0.0040
     10  C          6.0120   -0.6560    1.4690 C.2     1  UNL1        0.0000
     11  C          5.1720    1.4550    0.8490 C.2     1  UNL1        0.0000
     12  C          5.2920    0.4720    1.8060 C.2     1  UNL1        0.0000
@<TRIPOS>BOND
     1     5     4    1
     2     3     2    2
     3     4     2    1
     4     2     1    1
     5     6     1    1
     6     6     7    1
     7     7     9    2
     8     7     8    1
     9     9    11    1
    10     8    10    2
    11    11    12    2
    12    10    12    1
