@<TRIPOS>MOLECULE
/home/cewinharhar/GITHUB/reincatalyze/data/processed/docking_pred/2023-Apr-25-2248_maxeplen10_maxtrainstep1000_exh16_gamma099_lrac3e-4_lrcr1e-3/36543b95c0c748273319382419c31c9b55863a9a_ligand_2.pdbqt
 12 12 0 0 0
SMALL
GASTEIGER

@<TRIPOS>ATOM
      1  C          8.4050   -0.6830   -2.0890 C.3     1  UNL1        0.1270
      2  C          8.4160   -1.9210   -2.8890 C.2     1  UNL1        0.3030
      3  O          9.5120   -2.5140   -3.0840 O.2     1  UNL1       -0.2520
      4  O          7.2470   -2.4660   -3.4400 O.3     1  UNL1       -0.4810
      5  H          6.3740   -1.9750   -3.3030 H       1  UNL1        0.2960
      6  C          7.0430   -0.0130   -2.0880 C.3     1  UNL1        0.0470
      7  C          6.4810    0.0490   -0.7130 C.2     1  UNL1       -0.0470
      8  C          5.8210    1.1860   -0.2690 C.2     1  UNL1        0.0040
      9  C          6.5890   -0.9940    0.1870 C.2     1  UNL1        0.0040
     10  C          5.2990    1.2780    1.0000 C.2     1  UNL1        0.0000
     11  C          6.0660   -0.9000    1.4590 C.2     1  UNL1        0.0000
     12  C          5.4130    0.2310    1.8920 C.2     1  UNL1        0.0000
@<TRIPOS>BOND
     1     4     5    1
     2     4     2    1
     3     3     2    2
     4     2     1    1
     5     1     6    1
     6     6     7    1
     7     7     8    2
     8     7     9    1
     9     8    10    1
    10     9    11    2
    11    10    12    2
    12    11    12    1
