MODEL 1
REMARK VINA RESULT:      -7.3      0.000      0.000
REMARK SMILES O=C(O)CCc1ccccc1
REMARK SMILES IDX 4 1 2 2 1 3 3 4 5 6 6 7 7 8 11 9 8 10 10 11 9 12
REMARK H PARENT 3 5
REMARK Flexibility Score: inf
ROOT
ATOM      1  C   UNL     1       8.405  -0.683  -2.089  1.00  0.00     0.127 C 
ENDROOT
BRANCH   1   2
ATOM      2  C   UNL     1       8.416  -1.921  -2.889  1.00  0.00     0.303 C 
ATOM      3  O   UNL     1       9.512  -2.514  -3.084  1.00  0.00    -0.252 OA
BRANCH   2   4
ATOM      4  O   UNL     1       7.247  -2.466  -3.440  1.00  0.00    -0.481 OA
ATOM      5  H   UNL     1       6.374  -1.975  -3.303  1.00  0.00     0.296 HD
ENDBRANCH   2   4
ENDBRANCH   1   2
BRANCH   1   6
ATOM      6  C   UNL     1       7.043  -0.013  -2.088  1.00  0.00     0.047 C 
BRANCH   6   7
ATOM      7  C   UNL     1       6.481   0.049  -0.713  1.00  0.00    -0.047 A 
ATOM      8  C   UNL     1       5.821   1.186  -0.269  1.00  0.00     0.004 A 
ATOM      9  C   UNL     1       6.589  -0.994   0.187  1.00  0.00     0.004 A 
ATOM     10  C   UNL     1       5.299   1.278   1.000  1.00  0.00     0.000 A 
ATOM     11  C   UNL     1       6.066  -0.900   1.459  1.00  0.00     0.000 A 
ATOM     12  C   UNL     1       5.413   0.231   1.892  1.00  0.00     0.000 A 
ENDBRANCH   6   7
ENDBRANCH   1   6
TORSDOF 4
ENDMDL
MODEL 2
REMARK VINA RESULT:      -7.2      0.089      1.723
REMARK SMILES O=C(O)CCc1ccccc1
REMARK SMILES IDX 4 1 2 2 1 3 3 4 5 6 6 7 7 8 11 9 8 10 10 11 9 12
REMARK H PARENT 3 5
REMARK Flexibility Score: inf
ROOT
ATOM      1  C   UNL     1       8.372  -0.670  -2.098  1.00  0.00     0.127 C 
ENDROOT
BRANCH   1   2
ATOM      2  C   UNL     1       8.392  -1.915  -2.886  1.00  0.00     0.303 C 
ATOM      3  O   UNL     1       7.299  -2.426  -3.251  1.00  0.00    -0.252 OA
BRANCH   2   4
ATOM      4  O   UNL     1       9.588  -2.553  -3.246  1.00  0.00    -0.481 OA
ATOM      5  H   UNL     1      10.464  -2.121  -2.984  1.00  0.00     0.296 HD
ENDBRANCH   2   4
ENDBRANCH   1   2
BRANCH   1   6
ATOM      6  C   UNL     1       7.006  -0.007  -2.106  1.00  0.00     0.047 C 
BRANCH   6   7
ATOM      7  C   UNL     1       6.460   0.105  -0.729  1.00  0.00    -0.047 A 
ATOM      8  C   UNL     1       6.576  -0.949   0.167  1.00  0.00     0.004 A 
ATOM      9  C   UNL     1       5.809   1.236  -0.271  1.00  0.00     0.004 A 
ATOM     10  C   UNL     1       6.072  -0.880   1.445  1.00  0.00     0.000 A 
ATOM     11  C   UNL     1       5.305   1.303   1.010  1.00  0.00     0.000 A 
ATOM     12  C   UNL     1       5.423   0.253   1.892  1.00  0.00     0.000 A 
ENDBRANCH   6   7
ENDBRANCH   1   6
TORSDOF 4
ENDMDL
MODEL 3
REMARK VINA RESULT:      -7.2      0.666      1.243
REMARK SMILES O=C(O)CCc1ccccc1
REMARK SMILES IDX 4 1 2 2 1 3 3 4 5 6 6 7 7 8 11 9 8 10 10 11 9 12
REMARK H PARENT 3 5
REMARK Flexibility Score: inf
ROOT
ATOM      1  C   UNL     1       8.342  -1.044  -1.713  1.00  0.00     0.127 C 
ENDROOT
BRANCH   1   2
ATOM      2  C   UNL     1       8.421  -2.042  -2.794  1.00  0.00     0.303 C 
ATOM      3  O   UNL     1       9.551  -2.491  -3.131  1.00  0.00    -0.252 OA
BRANCH   2   4
ATOM      4  O   UNL     1       7.282  -2.514  -3.462  1.00  0.00    -0.481 OA
ATOM      5  H   UNL     1       6.375  -2.186  -3.160  1.00  0.00     0.296 HD
ENDBRANCH   2   4
ENDBRANCH   1   2
BRANCH   1   6
ATOM      6  C   UNL     1       7.476  -1.516  -0.559  1.00  0.00     0.047 C 
BRANCH   6   7
ATOM      7  C   UNL     1       6.616  -0.414  -0.052  1.00  0.00    -0.047 A 
ATOM      8  C   UNL     1       6.284   0.657  -0.869  1.00  0.00     0.004 A 
ATOM      9  C   UNL     1       6.116  -0.387   1.237  1.00  0.00     0.004 A 
ATOM     10  C   UNL     1       5.499   1.697  -0.427  1.00  0.00     0.000 A 
ATOM     11  C   UNL     1       5.330   0.656   1.678  1.00  0.00     0.000 A 
ATOM     12  C   UNL     1       5.006   1.716   0.862  1.00  0.00     0.000 A 
ENDBRANCH   6   7
ENDBRANCH   1   6
TORSDOF 4
ENDMDL
MODEL 4
REMARK VINA RESULT:      -6.8      3.387      5.083
REMARK SMILES O=C(O)CCc1ccccc1
REMARK SMILES IDX 4 1 2 2 1 3 3 4 5 6 6 7 7 8 11 9 8 10 10 11 9 12
REMARK H PARENT 3 5
REMARK Flexibility Score: inf
ROOT
ATOM      1  C   UNL     1       5.019   1.764   0.714  1.00  0.00     0.127 C 
ENDROOT
BRANCH   1   2
ATOM      2  C   UNL     1       4.499   1.107   1.926  1.00  0.00     0.303 C 
ATOM      3  O   UNL     1       5.198   0.221   2.490  1.00  0.00    -0.252 OA
BRANCH   2   4
ATOM      4  O   UNL     1       3.252   1.433   2.477  1.00  0.00    -0.481 OA
ATOM      5  H   UNL     1       2.429   1.349   1.895  1.00  0.00     0.296 HD
ENDBRANCH   2   4
ENDBRANCH   1   2
BRANCH   1   6
ATOM      6  C   UNL     1       6.531   1.903   0.741  1.00  0.00     0.047 C 
BRANCH   6   7
ATOM      7  C   UNL     1       7.159   1.102  -0.342  1.00  0.00    -0.047 A 
ATOM      8  C   UNL     1       6.401   0.222  -1.102  1.00  0.00     0.004 A 
ATOM      9  C   UNL     1       8.507   1.177  -0.644  1.00  0.00     0.004 A 
ATOM     10  C   UNL     1       6.955  -0.541  -2.104  1.00  0.00     0.000 A 
ATOM     11  C   UNL     1       9.060   0.412  -1.648  1.00  0.00     0.000 A 
ATOM     12  C   UNL     1       8.302  -0.460  -2.396  1.00  0.00     0.000 A 
ENDBRANCH   6   7
ENDBRANCH   1   6
TORSDOF 4
ENDMDL
MODEL 5
REMARK VINA RESULT:      -6.6      3.825      4.982
REMARK SMILES O=C(O)CCc1ccccc1
REMARK SMILES IDX 4 1 2 2 1 3 3 4 5 6 6 7 7 8 11 9 8 10 10 11 9 12
REMARK H PARENT 3 5
REMARK Flexibility Score: inf
ROOT
ATOM      1  C   UNL     1       5.555   2.907   0.052  1.00  0.00     0.127 C 
ENDROOT
BRANCH   1   2
ATOM      2  C   UNL     1       6.317   3.884   0.849  1.00  0.00     0.303 C 
ATOM      3  O   UNL     1       6.985   4.773   0.254  1.00  0.00    -0.252 OA
BRANCH   2   4
ATOM      4  O   UNL     1       6.324   3.863   2.251  1.00  0.00    -0.481 OA
ATOM      5  H   UNL     1       5.944   3.053   2.724  1.00  0.00     0.296 HD
ENDBRANCH   2   4
ENDBRANCH   1   2
BRANCH   1   6
ATOM      6  C   UNL     1       4.920   1.832   0.915  1.00  0.00     0.047 C 
BRANCH   6   7
ATOM      7  C   UNL     1       5.758   0.604   0.940  1.00  0.00    -0.047 A 
ATOM      8  C   UNL     1       5.718  -0.258   2.027  1.00  0.00     0.004 A 
ATOM      9  C   UNL     1       6.615   0.262  -0.089  1.00  0.00     0.004 A 
ATOM     10  C   UNL     1       6.489  -1.396   2.085  1.00  0.00     0.000 A 
ATOM     11  C   UNL     1       7.387  -0.878  -0.030  1.00  0.00     0.000 A 
ATOM     12  C   UNL     1       7.342  -1.728   1.052  1.00  0.00     0.000 A 
ENDBRANCH   6   7
ENDBRANCH   1   6
TORSDOF 4
ENDMDL
