@<TRIPOS>MOLECULE
/home/cewinharhar/GITHUB/reincatalyze/data/processed/docking_pred/2023-Apr-25-2248_maxeplen10_maxtrainstep1000_exh16_gamma099_lrac3e-4_lrcr1e-3/36543b95c0c748273319382419c31c9b55863a9a_ligand_2.pdbqt
 12 12 0 0 0
SMALL
GASTEIGER

@<TRIPOS>ATOM
      1  C          8.3720   -0.6700   -2.0980 C.3     1  UNL1        0.1270
      2  C          8.3920   -1.9150   -2.8860 C.2     1  UNL1        0.3030
      3  O          7.2990   -2.4260   -3.2510 O.2     1  UNL1       -0.2520
      4  O          9.5880   -2.5530   -3.2460 O.3     1  UNL1       -0.4810
      5  H         10.4640   -2.1210   -2.9840 H       1  UNL1        0.2960
      6  C          7.0060   -0.0070   -2.1060 C.3     1  UNL1        0.0470
      7  C          6.4600    0.1050   -0.7290 C.2     1  UNL1       -0.0470
      8  C          6.5760   -0.9490    0.1670 C.2     1  UNL1        0.0040
      9  C          5.8090    1.2360   -0.2710 C.2     1  UNL1        0.0040
     10  C          6.0720   -0.8800    1.4450 C.2     1  UNL1        0.0000
     11  C          5.3050    1.3030    1.0100 C.2     1  UNL1        0.0000
     12  C          5.4230    0.2530    1.8920 C.2     1  UNL1        0.0000
@<TRIPOS>BOND
     1     3     2    2
     2     4     5    1
     3     4     2    1
     4     2     1    1
     5     6     1    1
     6     6     7    1
     7     7     9    2
     8     7     8    1
     9     9    11    1
    10     8    10    2
    11    11    12    2
    12    10    12    1
