@<TRIPOS>MOLECULE
/home/cewinharhar/GITHUB/reincatalyze/data/processed/docking_pred/2023-Apr-25-2248_maxeplen10_maxtrainstep1000_exh16_gamma099_lrac3e-4_lrcr1e-3/36543b95c0c748273319382419c31c9b55863a9a_ligand_2.pdbqt
 12 12 0 0 0
SMALL
GASTEIGER

@<TRIPOS>ATOM
      1  C          5.5550    2.9070    0.0520 C.3     1  UNL1        0.1270
      2  C          6.3170    3.8840    0.8490 C.2     1  UNL1        0.3030
      3  O          6.9850    4.7730    0.2540 O.2     1  UNL1       -0.2520
      4  O          6.3240    3.8630    2.2510 O.3     1  UNL1       -0.4810
      5  H          5.9440    3.0530    2.7240 H       1  UNL1        0.2960
      6  C          4.9200    1.8320    0.9150 C.3     1  UNL1        0.0470
      7  C          5.7580    0.6040    0.9400 C.2     1  UNL1       -0.0470
      8  C          5.7180   -0.2580    2.0270 C.2     1  UNL1        0.0040
      9  C          6.6150    0.2620   -0.0890 C.2     1  UNL1        0.0040
     10  C          6.4890   -1.3960    2.0850 C.2     1  UNL1        0.0000
     11  C          7.3870   -0.8780   -0.0300 C.2     1  UNL1        0.0000
     12  C          7.3420   -1.7280    1.0520 C.2     1  UNL1        0.0000
@<TRIPOS>BOND
     1     9    11    1
     2     9     7    2
     3    11    12    2
     4     1     2    1
     5     1     6    1
     6     3     2    2
     7     2     4    1
     8     6     7    1
     9     7     8    1
    10    12    10    1
    11     8    10    2
    12     4     5    1
