@<TRIPOS>MOLECULE
/home/cewinharhar/GITHUB/reincatalyze/data/processed/docking_pred/2023-Apr-25-2248_maxeplen10_maxtrainstep1000_exh16_gamma099_lrac3e-4_lrcr1e-3/36543b95c0c748273319382419c31c9b55863a9a_ligand_2.pdbqt
 12 12 0 0 0
SMALL
GASTEIGER

@<TRIPOS>ATOM
      1  C          5.0190    1.7640    0.7140 C.3     1  UNL1        0.1270
      2  C          4.4990    1.1070    1.9260 C.2     1  UNL1        0.3030
      3  O          5.1980    0.2210    2.4900 O.2     1  UNL1       -0.2520
      4  O          3.2520    1.4330    2.4770 O.3     1  UNL1       -0.4810
      5  H          2.4290    1.3490    1.8950 H       1  UNL1        0.2960
      6  C          6.5310    1.9030    0.7410 C.3     1  UNL1        0.0470
      7  C          7.1590    1.1020   -0.3420 C.2     1  UNL1       -0.0470
      8  C          6.4010    0.2220   -1.1020 C.2     1  UNL1        0.0040
      9  C          8.5070    1.1770   -0.6440 C.2     1  UNL1        0.0040
     10  C          6.9550   -0.5410   -2.1040 C.2     1  UNL1        0.0000
     11  C          9.0600    0.4120   -1.6480 C.2     1  UNL1        0.0000
     12  C          8.3020   -0.4600   -2.3960 C.2     1  UNL1        0.0000
@<TRIPOS>BOND
     1    12    10    2
     2    12    11    1
     3    10     8    1
     4    11     9    2
     5     8     7    2
     6     9     7    1
     7     7     6    1
     8     1     6    1
     9     1     2    1
    10     5     4    1
    11     2     4    1
    12     2     3    2
