@<TRIPOS>MOLECULE
/home/cewinharhar/GITHUB/reincatalyze/data/processed/docking_pred/2023-Apr-25-2248_maxeplen10_maxtrainstep1000_exh16_gamma099_lrac3e-4_lrcr1e-3/36543b95c0c748273319382419c31c9b55863a9a_ligand_2.pdbqt
 12 12 0 0 0
SMALL
GASTEIGER

@<TRIPOS>ATOM
      1  C          8.3420   -1.0440   -1.7130 C.3     1  UNL1        0.1270
      2  C          8.4210   -2.0420   -2.7940 C.2     1  UNL1        0.3030
      3  O          9.5510   -2.4910   -3.1310 O.2     1  UNL1       -0.2520
      4  O          7.2820   -2.5140   -3.4620 O.3     1  UNL1       -0.4810
      5  H          6.3750   -2.1860   -3.1600 H       1  UNL1        0.2960
      6  C          7.4760   -1.5160   -0.5590 C.3     1  UNL1        0.0470
      7  C          6.6160   -0.4140   -0.0520 C.2     1  UNL1       -0.0470
      8  C          6.2840    0.6570   -0.8690 C.2     1  UNL1        0.0040
      9  C          6.1160   -0.3870    1.2370 C.2     1  UNL1        0.0040
     10  C          5.4990    1.6970   -0.4270 C.2     1  UNL1        0.0000
     11  C          5.3300    0.6560    1.6780 C.2     1  UNL1        0.0000
     12  C          5.0060    1.7160    0.8620 C.2     1  UNL1        0.0000
@<TRIPOS>BOND
     1     4     5    1
     2     4     2    1
     3     3     2    2
     4     2     1    1
     5     1     6    1
     6     8    10    1
     7     8     7    2
     8     6     7    1
     9    10    12    2
    10     7     9    1
    11    12    11    1
    12     9    11    2
