@<TRIPOS>MOLECULE
/home/cewinharhar/GITHUB/reincatalyze/data/processed/docking_pred/2023-Apr-25-2248_maxeplen10_maxtrainstep1000_exh16_gamma099_lrac3e-4_lrcr1e-3/367438b83e07ec58543242b49c62b5ced391bd04_ligand_2.pdbqt
 12 12 0 0 0
SMALL
GASTEIGER

@<TRIPOS>ATOM
      1  C          5.0020    1.7830    0.7110 C.3     1  UNL1        0.1270
      2  C          4.4840    1.1220    1.9210 C.2     1  UNL1        0.3030
      3  O          5.1810    0.2320    2.4790 O.2     1  UNL1       -0.2520
      4  O          3.2390    1.4500    2.4770 O.3     1  UNL1       -0.4810
      5  H          2.4140    0.9840    2.1250 H       1  UNL1        0.2960
      6  C          6.5150    1.9110    0.7300 C.3     1  UNL1        0.0470
      7  C          7.1330    1.0870   -0.3420 C.2     1  UNL1       -0.0470
      8  C          8.4780    1.2250   -0.6540 C.2     1  UNL1        0.0040
      9  C          6.4180    0.1630   -1.0810 C.2     1  UNL1        0.0040
     10  C          9.0770    0.4850   -1.6470 C.2     1  UNL1        0.0000
     11  C          7.0190   -0.5780   -2.0760 C.2     1  UNL1        0.0000
     12  C          8.3540   -0.4350   -2.3800 C.2     1  UNL1        0.0000
@<TRIPOS>BOND
     1    12    11    2
     2    12    10    1
     3    11     9    1
     4    10     8    2
     5     9     7    2
     6     8     7    1
     7     7     6    1
     8     1     6    1
     9     1     2    1
    10     2     4    1
    11     2     3    2
    12     5     4    1
