@<TRIPOS>MOLECULE
/home/cewinharhar/GITHUB/reincatalyze/data/processed/docking_pred/2023-Apr-25-2248_maxeplen10_maxtrainstep1000_exh16_gamma099_lrac3e-4_lrcr1e-3/367438b83e07ec58543242b49c62b5ced391bd04_ligand_2.pdbqt
 12 12 0 0 0
SMALL
GASTEIGER

@<TRIPOS>ATOM
      1  C          8.2270   -1.6190    1.0200 C.3     1  UNL1        0.1270
      2  C          8.5210   -2.8460    0.2590 C.2     1  UNL1        0.3030
      3  O          9.1590   -3.7770    0.8210 O.2     1  UNL1       -0.2520
      4  O          8.1140   -3.0150   -1.0720 O.3     1  UNL1       -0.4810
      5  H          7.8200   -2.2020   -1.5950 H       1  UNL1        0.2960
      6  C          6.7470   -1.4760    1.3290 C.3     1  UNL1        0.0470
      7  C          6.2070   -0.2080    0.7730 C.2     1  UNL1       -0.0470
      8  C          5.4280    0.6320    1.5550 C.2     1  UNL1        0.0040
      9  C          6.4350    0.1950   -0.5300 C.2     1  UNL1        0.0040
     10  C          4.9040    1.8080    1.0660 C.2     1  UNL1        0.0000
     11  C          5.9100    1.3730   -1.0180 C.2     1  UNL1        0.0000
     12  C          5.1370    2.2000   -0.2360 C.2     1  UNL1        0.0000
@<TRIPOS>BOND
     1     5     4    1
     2     4     2    1
     3    11     9    1
     4    11    12    2
     5     9     7    2
     6    12    10    1
     7     2     3    2
     8     2     1    1
     9     7     6    1
    10     7     8    1
    11     1     6    1
    12    10     8    2
