@<TRIPOS>MOLECULE
/home/cewinharhar/GITHUB/reincatalyze/data/processed/docking_pred/2023-Apr-25-2248_maxeplen10_maxtrainstep1000_exh16_gamma099_lrac3e-4_lrcr1e-3/367438b83e07ec58543242b49c62b5ced391bd04_ligand_2.pdbqt
 12 12 0 0 0
SMALL
GASTEIGER

@<TRIPOS>ATOM
      1  C          8.4190   -0.6430   -2.1290 C.3     1  UNL1        0.1270
      2  C          8.4490   -1.9050   -2.8900 C.2     1  UNL1        0.3030
      3  O          9.5540   -2.4850   -3.0710 O.2     1  UNL1       -0.2520
      4  O          7.2880   -2.4860   -3.4200 O.3     1  UNL1       -0.4810
      5  H          6.4080   -2.0040   -3.3000 H       1  UNL1        0.2960
      6  C          7.0370   -0.0150   -2.1130 C.3     1  UNL1        0.0470
      7  C          6.5030    0.0620   -0.7280 C.2     1  UNL1       -0.0470
      8  C          6.6290   -1.0140    0.1400 C.2     1  UNL1        0.0040
      9  C          5.8560    1.1800   -0.2370 C.2     1  UNL1        0.0040
     10  C          6.1370   -0.9770    1.4240 C.2     1  UNL1        0.0000
     11  C          5.3630    1.2150    1.0500 C.2     1  UNL1        0.0000
     12  C          5.4910    0.1440    1.9050 C.2     1  UNL1        0.0000
@<TRIPOS>BOND
     1     4     5    1
     2     4     2    1
     3     3     2    2
     4     2     1    1
     5     1     6    1
     6     6     7    1
     7     7     9    2
     8     7     8    1
     9     9    11    1
    10     8    10    2
    11    11    12    2
    12    10    12    1
