@<TRIPOS>MOLECULE
/home/cewinharhar/GITHUB/reincatalyze/data/processed/docking_pred/2023-Apr-25-2248_maxeplen10_maxtrainstep1000_exh16_gamma099_lrac3e-4_lrcr1e-3/367438b83e07ec58543242b49c62b5ced391bd04_ligand_2.pdbqt
 12 12 0 0 0
SMALL
GASTEIGER

@<TRIPOS>ATOM
      1  C          5.3820    2.9440    0.1250 C.3     1  UNL1        0.1270
      2  C          6.2300    3.8850    0.8760 C.2     1  UNL1        0.3030
      3  O          6.8700    4.7710    0.2460 O.2     1  UNL1       -0.2520
      4  O          6.3520    3.8320    2.2730 O.3     1  UNL1       -0.4810
      5  H          5.9800    4.5980    2.8190 H       1  UNL1        0.2960
      6  C          5.2020    1.6250    0.8550 C.3     1  UNL1        0.0470
      7  C          6.0090    0.5500    0.2200 C.2     1  UNL1       -0.0470
      8  C          6.3210    0.6040   -1.1310 C.2     1  UNL1        0.0040
      9  C          6.4770   -0.5460    0.9200 C.2     1  UNL1        0.0040
     10  C          7.0570   -0.3800   -1.7500 C.2     1  UNL1        0.0000
     11  C          7.2150   -1.5310    0.2990 C.2     1  UNL1        0.0000
     12  C          7.5190   -1.4720   -1.0420 C.2     1  UNL1        0.0000
@<TRIPOS>BOND
     1    10     8    1
     2    10    12    2
     3     8     7    2
     4    12    11    1
     5     1     6    1
     6     1     2    1
     7     7     6    1
     8     7     9    1
     9     3     2    2
    10    11     9    2
    11     2     4    1
    12     4     5    1
