@<TRIPOS>MOLECULE
/home/cewinharhar/GITHUB/reincatalyze/data/processed/docking_pred/2023-Apr-25-2248_maxeplen10_maxtrainstep1000_exh16_gamma099_lrac3e-4_lrcr1e-3/367438b83e07ec58543242b49c62b5ced391bd04_ligand_2.pdbqt
 12 12 0 0 0
SMALL
GASTEIGER

@<TRIPOS>ATOM
      1  C          8.3940   -0.7060   -2.0630 C.3     1  UNL1        0.1270
      2  C          8.4150   -1.9350   -2.8760 C.2     1  UNL1        0.3030
      3  O          9.5130   -2.5260   -3.0640 O.2     1  UNL1       -0.2520
      4  O          7.2530   -2.4730   -3.4480 O.3     1  UNL1       -0.4810
      5  H          6.3780   -1.9830   -3.3170 H       1  UNL1        0.2960
      6  C          7.0310   -0.0380   -2.0660 C.3     1  UNL1        0.0470
      7  C          6.4690    0.0330   -0.6920 C.2     1  UNL1       -0.0470
      8  C          5.8170    1.1760   -0.2530 C.2     1  UNL1        0.0040
      9  C          6.5710   -1.0080    0.2130 C.2     1  UNL1        0.0040
     10  C          5.2950    1.2770    1.0170 C.2     1  UNL1        0.0000
     11  C          6.0480   -0.9050    1.4840 C.2     1  UNL1        0.0000
     12  C          5.4030    0.2330    1.9130 C.2     1  UNL1        0.0000
@<TRIPOS>BOND
     1     4     5    1
     2     4     2    1
     3     3     2    2
     4     2     1    1
     5     6     1    1
     6     6     7    1
     7     7     8    2
     8     7     9    1
     9     8    10    1
    10     9    11    2
    11    10    12    2
    12    11    12    1
