MODEL 1
REMARK VINA RESULT:      -7.3      0.000      0.000
REMARK SMILES O=C(O)CCc1ccccc1
REMARK SMILES IDX 4 1 2 2 1 3 3 4 5 6 6 7 7 8 11 9 8 10 10 11 9 12
REMARK H PARENT 3 5
REMARK Flexibility Score: inf
ROOT
ATOM      1  C   UNL     1       8.394  -0.706  -2.063  1.00  0.00     0.127 C 
ENDROOT
BRANCH   1   2
ATOM      2  C   UNL     1       8.415  -1.935  -2.876  1.00  0.00     0.303 C 
ATOM      3  O   UNL     1       9.513  -2.526  -3.064  1.00  0.00    -0.252 OA
BRANCH   2   4
ATOM      4  O   UNL     1       7.253  -2.473  -3.448  1.00  0.00    -0.481 OA
ATOM      5  H   UNL     1       6.378  -1.983  -3.317  1.00  0.00     0.296 HD
ENDBRANCH   2   4
ENDBRANCH   1   2
BRANCH   1   6
ATOM      6  C   UNL     1       7.031  -0.038  -2.066  1.00  0.00     0.047 C 
BRANCH   6   7
ATOM      7  C   UNL     1       6.469   0.033  -0.692  1.00  0.00    -0.047 A 
ATOM      8  C   UNL     1       5.817   1.176  -0.253  1.00  0.00     0.004 A 
ATOM      9  C   UNL     1       6.571  -1.008   0.213  1.00  0.00     0.004 A 
ATOM     10  C   UNL     1       5.295   1.277   1.017  1.00  0.00     0.000 A 
ATOM     11  C   UNL     1       6.048  -0.905   1.484  1.00  0.00     0.000 A 
ATOM     12  C   UNL     1       5.403   0.233   1.913  1.00  0.00     0.000 A 
ENDBRANCH   6   7
ENDBRANCH   1   6
TORSDOF 4
ENDMDL
MODEL 2
REMARK VINA RESULT:      -7.3      0.083      1.422
REMARK SMILES O=C(O)CCc1ccccc1
REMARK SMILES IDX 4 1 2 2 1 3 3 4 5 6 6 7 7 8 11 9 8 10 10 11 9 12
REMARK H PARENT 3 5
REMARK Flexibility Score: inf
ROOT
ATOM      1  C   UNL     1       8.419  -0.643  -2.129  1.00  0.00     0.127 C 
ENDROOT
BRANCH   1   2
ATOM      2  C   UNL     1       8.449  -1.905  -2.890  1.00  0.00     0.303 C 
ATOM      3  O   UNL     1       9.554  -2.485  -3.071  1.00  0.00    -0.252 OA
BRANCH   2   4
ATOM      4  O   UNL     1       7.288  -2.486  -3.420  1.00  0.00    -0.481 OA
ATOM      5  H   UNL     1       6.408  -2.004  -3.300  1.00  0.00     0.296 HD
ENDBRANCH   2   4
ENDBRANCH   1   2
BRANCH   1   6
ATOM      6  C   UNL     1       7.037  -0.015  -2.113  1.00  0.00     0.047 C 
BRANCH   6   7
ATOM      7  C   UNL     1       6.503   0.062  -0.728  1.00  0.00    -0.047 A 
ATOM      8  C   UNL     1       6.629  -1.014   0.140  1.00  0.00     0.004 A 
ATOM      9  C   UNL     1       5.856   1.180  -0.237  1.00  0.00     0.004 A 
ATOM     10  C   UNL     1       6.137  -0.977   1.424  1.00  0.00     0.000 A 
ATOM     11  C   UNL     1       5.363   1.215   1.050  1.00  0.00     0.000 A 
ATOM     12  C   UNL     1       5.491   0.144   1.905  1.00  0.00     0.000 A 
ENDBRANCH   6   7
ENDBRANCH   1   6
TORSDOF 4
ENDMDL
MODEL 3
REMARK VINA RESULT:      -6.8      3.399      5.082
REMARK SMILES O=C(O)CCc1ccccc1
REMARK SMILES IDX 4 1 2 2 1 3 3 4 5 6 6 7 7 8 11 9 8 10 10 11 9 12
REMARK H PARENT 3 5
REMARK Flexibility Score: inf
ROOT
ATOM      1  C   UNL     1       5.002   1.783   0.711  1.00  0.00     0.127 C 
ENDROOT
BRANCH   1   2
ATOM      2  C   UNL     1       4.484   1.122   1.921  1.00  0.00     0.303 C 
ATOM      3  O   UNL     1       5.181   0.232   2.479  1.00  0.00    -0.252 OA
BRANCH   2   4
ATOM      4  O   UNL     1       3.239   1.450   2.477  1.00  0.00    -0.481 OA
ATOM      5  H   UNL     1       2.414   0.984   2.125  1.00  0.00     0.296 HD
ENDBRANCH   2   4
ENDBRANCH   1   2
BRANCH   1   6
ATOM      6  C   UNL     1       6.515   1.911   0.730  1.00  0.00     0.047 C 
BRANCH   6   7
ATOM      7  C   UNL     1       7.133   1.087  -0.342  1.00  0.00    -0.047 A 
ATOM      8  C   UNL     1       8.478   1.225  -0.654  1.00  0.00     0.004 A 
ATOM      9  C   UNL     1       6.418   0.163  -1.081  1.00  0.00     0.004 A 
ATOM     10  C   UNL     1       9.077   0.485  -1.647  1.00  0.00     0.000 A 
ATOM     11  C   UNL     1       7.019  -0.578  -2.076  1.00  0.00     0.000 A 
ATOM     12  C   UNL     1       8.354  -0.435  -2.380  1.00  0.00     0.000 A 
ENDBRANCH   6   7
ENDBRANCH   1   6
TORSDOF 4
ENDMDL
MODEL 4
REMARK VINA RESULT:      -6.6      1.875      2.806
REMARK SMILES O=C(O)CCc1ccccc1
REMARK SMILES IDX 4 1 2 2 1 3 3 4 5 6 6 7 7 8 11 9 8 10 10 11 9 12
REMARK H PARENT 3 5
REMARK Flexibility Score: inf
ROOT
ATOM      1  C   UNL     1       8.227  -1.619   1.020  1.00  0.00     0.127 C 
ENDROOT
BRANCH   1   2
ATOM      2  C   UNL     1       8.521  -2.846   0.259  1.00  0.00     0.303 C 
ATOM      3  O   UNL     1       9.159  -3.777   0.821  1.00  0.00    -0.252 OA
BRANCH   2   4
ATOM      4  O   UNL     1       8.114  -3.015  -1.072  1.00  0.00    -0.481 OA
ATOM      5  H   UNL     1       7.820  -2.202  -1.595  1.00  0.00     0.296 HD
ENDBRANCH   2   4
ENDBRANCH   1   2
BRANCH   1   6
ATOM      6  C   UNL     1       6.747  -1.476   1.329  1.00  0.00     0.047 C 
BRANCH   6   7
ATOM      7  C   UNL     1       6.207  -0.208   0.773  1.00  0.00    -0.047 A 
ATOM      8  C   UNL     1       5.428   0.632   1.555  1.00  0.00     0.004 A 
ATOM      9  C   UNL     1       6.435   0.195  -0.530  1.00  0.00     0.004 A 
ATOM     10  C   UNL     1       4.904   1.808   1.066  1.00  0.00     0.000 A 
ATOM     11  C   UNL     1       5.910   1.373  -1.018  1.00  0.00     0.000 A 
ATOM     12  C   UNL     1       5.137   2.200  -0.236  1.00  0.00     0.000 A 
ENDBRANCH   6   7
ENDBRANCH   1   6
TORSDOF 4
ENDMDL
MODEL 5
REMARK VINA RESULT:      -6.6      3.766      5.002
REMARK SMILES O=C(O)CCc1ccccc1
REMARK SMILES IDX 4 1 2 2 1 3 3 4 5 6 6 7 7 8 11 9 8 10 10 11 9 12
REMARK H PARENT 3 5
REMARK Flexibility Score: inf
ROOT
ATOM      1  C   UNL     1       5.382   2.944   0.125  1.00  0.00     0.127 C 
ENDROOT
BRANCH   1   2
ATOM      2  C   UNL     1       6.230   3.885   0.876  1.00  0.00     0.303 C 
ATOM      3  O   UNL     1       6.870   4.771   0.246  1.00  0.00    -0.252 OA
BRANCH   2   4
ATOM      4  O   UNL     1       6.352   3.832   2.273  1.00  0.00    -0.481 OA
ATOM      5  H   UNL     1       5.980   4.598   2.819  1.00  0.00     0.296 HD
ENDBRANCH   2   4
ENDBRANCH   1   2
BRANCH   1   6
ATOM      6  C   UNL     1       5.202   1.625   0.855  1.00  0.00     0.047 C 
BRANCH   6   7
ATOM      7  C   UNL     1       6.009   0.550   0.220  1.00  0.00    -0.047 A 
ATOM      8  C   UNL     1       6.321   0.604  -1.131  1.00  0.00     0.004 A 
ATOM      9  C   UNL     1       6.477  -0.546   0.920  1.00  0.00     0.004 A 
ATOM     10  C   UNL     1       7.057  -0.380  -1.750  1.00  0.00     0.000 A 
ATOM     11  C   UNL     1       7.215  -1.531   0.299  1.00  0.00     0.000 A 
ATOM     12  C   UNL     1       7.519  -1.472  -1.042  1.00  0.00     0.000 A 
ENDBRANCH   6   7
ENDBRANCH   1   6
TORSDOF 4
ENDMDL
