MODEL 1
REMARK VINA RESULT:      -7.2      0.000      0.000
REMARK SMILES O=C(O)CCc1ccccc1
REMARK SMILES IDX 4 1 2 2 1 3 3 4 5 6 6 7 7 8 11 9 8 10 10 11 9 12
REMARK H PARENT 3 5
REMARK Flexibility Score: inf
ROOT
ATOM      1  C   UNL     1       8.390  -0.770  -1.974  1.00  0.00     0.127 C 
ENDROOT
BRANCH   1   2
ATOM      2  C   UNL     1       8.387  -1.959  -2.845  1.00  0.00     0.303 C 
ATOM      3  O   UNL     1       7.285  -2.417  -3.252  1.00  0.00    -0.252 OA
BRANCH   2   4
ATOM      4  O   UNL     1       9.571  -2.600  -3.240  1.00  0.00    -0.481 OA
ATOM      5  H   UNL     1       9.509  -3.530  -3.632  1.00  0.00     0.296 HD
ENDBRANCH   2   4
ENDBRANCH   1   2
BRANCH   1   6
ATOM      6  C   UNL     1       7.093   0.013  -2.068  1.00  0.00     0.047 C 
BRANCH   6   7
ATOM      7  C   UNL     1       6.474   0.180  -0.727  1.00  0.00    -0.047 A 
ATOM      8  C   UNL     1       6.571  -0.822   0.228  1.00  0.00     0.004 A 
ATOM      9  C   UNL     1       5.773   1.315  -0.362  1.00  0.00     0.004 A 
ATOM     10  C   UNL     1       6.000  -0.702   1.474  1.00  0.00     0.000 A 
ATOM     11  C   UNL     1       5.202   1.434   0.886  1.00  0.00     0.000 A 
ATOM     12  C   UNL     1       5.301   0.435   1.827  1.00  0.00     0.000 A 
ENDBRANCH   6   7
ENDBRANCH   1   6
TORSDOF 4
ENDMDL
MODEL 2
REMARK VINA RESULT:      -7.1      0.185      1.431
REMARK SMILES O=C(O)CCc1ccccc1
REMARK SMILES IDX 4 1 2 2 1 3 3 4 5 6 6 7 7 8 11 9 8 10 10 11 9 12
REMARK H PARENT 3 5
REMARK Flexibility Score: inf
ROOT
ATOM      1  C   UNL     1       8.382  -0.589  -2.198  1.00  0.00     0.127 C 
ENDROOT
BRANCH   1   2
ATOM      2  C   UNL     1       8.403  -1.883  -2.903  1.00  0.00     0.303 C 
ATOM      3  O   UNL     1       7.310  -2.417  -3.234  1.00  0.00    -0.252 OA
BRANCH   2   4
ATOM      4  O   UNL     1       9.599  -2.542  -3.222  1.00  0.00    -0.481 OA
ATOM      5  H   UNL     1       9.556  -3.511  -3.506  1.00  0.00     0.296 HD
ENDBRANCH   2   4
ENDBRANCH   1   2
BRANCH   1   6
ATOM      6  C   UNL     1       6.993   0.023  -2.161  1.00  0.00     0.047 C 
BRANCH   6   7
ATOM      7  C   UNL     1       6.468   0.068  -0.772  1.00  0.00    -0.047 A 
ATOM      8  C   UNL     1       5.810   1.195  -0.300  1.00  0.00     0.004 A 
ATOM      9  C   UNL     1       6.608  -0.983   0.116  1.00  0.00     0.004 A 
ATOM     10  C   UNL     1       5.322   1.272   0.984  1.00  0.00     0.000 A 
ATOM     11  C   UNL     1       6.118  -0.905   1.402  1.00  0.00     0.000 A 
ATOM     12  C   UNL     1       5.468   0.218   1.863  1.00  0.00     0.000 A 
ENDBRANCH   6   7
ENDBRANCH   1   6
TORSDOF 4
ENDMDL
MODEL 3
REMARK VINA RESULT:      -7.1      2.508      3.328
REMARK SMILES O=C(O)CCc1ccccc1
REMARK SMILES IDX 4 1 2 2 1 3 3 4 5 6 6 7 7 8 11 9 8 10 10 11 9 12
REMARK H PARENT 3 5
REMARK Flexibility Score: inf
ROOT
ATOM      1  C   UNL     1       8.083  -2.302   0.618  1.00  0.00     0.127 C 
ENDROOT
BRANCH   1   2
ATOM      2  C   UNL     1       8.507  -3.665   0.982  1.00  0.00     0.303 C 
ATOM      3  O   UNL     1       9.736  -3.947   0.975  1.00  0.00    -0.252 OA
BRANCH   2   4
ATOM      4  O   UNL     1       7.589  -4.664   1.340  1.00  0.00    -0.481 OA
ATOM      5  H   UNL     1       7.287  -4.720   2.303  1.00  0.00     0.296 HD
ENDBRANCH   2   4
ENDBRANCH   1   2
BRANCH   1   6
ATOM      6  C   UNL     1       6.916  -1.819   1.461  1.00  0.00     0.047 C 
BRANCH   6   7
ATOM      7  C   UNL     1       6.349  -0.559   0.914  1.00  0.00    -0.047 A 
ATOM      8  C   UNL     1       6.566  -0.200  -0.409  1.00  0.00     0.004 A 
ATOM      9  C   UNL     1       5.598   0.317   1.677  1.00  0.00     0.004 A 
ATOM     10  C   UNL     1       6.064   0.965  -0.942  1.00  0.00     0.000 A 
ATOM     11  C   UNL     1       5.096   1.483   1.141  1.00  0.00     0.000 A 
ATOM     12  C   UNL     1       5.316   1.833  -0.172  1.00  0.00     0.000 A 
ENDBRANCH   6   7
ENDBRANCH   1   6
TORSDOF 4
ENDMDL
MODEL 4
REMARK VINA RESULT:      -6.7      3.323      5.181
REMARK SMILES O=C(O)CCc1ccccc1
REMARK SMILES IDX 4 1 2 2 1 3 3 4 5 6 6 7 7 8 11 9 8 10 10 11 9 12
REMARK H PARENT 3 5
REMARK Flexibility Score: inf
ROOT
ATOM      1  C   UNL     1       4.985   1.790   0.729  1.00  0.00     0.127 C 
ENDROOT
BRANCH   1   2
ATOM      2  C   UNL     1       4.460   1.116   1.929  1.00  0.00     0.303 C 
ATOM      3  O   UNL     1       5.146   0.207   2.470  1.00  0.00    -0.252 OA
BRANCH   2   4
ATOM      4  O   UNL     1       3.220   1.450   2.492  1.00  0.00    -0.481 OA
ATOM      5  H   UNL     1       2.694   2.212   2.086  1.00  0.00     0.296 HD
ENDBRANCH   2   4
ENDBRANCH   1   2
BRANCH   1   6
ATOM      6  C   UNL     1       6.498   1.911   0.754  1.00  0.00     0.047 C 
BRANCH   6   7
ATOM      7  C   UNL     1       7.116   1.103  -0.330  1.00  0.00    -0.047 A 
ATOM      8  C   UNL     1       8.462   1.242  -0.637  1.00  0.00     0.004 A 
ATOM      9  C   UNL     1       6.400   0.193  -1.086  1.00  0.00     0.004 A 
ATOM     10  C   UNL     1       9.061   0.516  -1.641  1.00  0.00     0.000 A 
ATOM     11  C   UNL     1       7.001  -0.533  -2.091  1.00  0.00     0.000 A 
ATOM     12  C   UNL     1       8.336  -0.388  -2.391  1.00  0.00     0.000 A 
ENDBRANCH   6   7
ENDBRANCH   1   6
TORSDOF 4
ENDMDL
MODEL 5
REMARK VINA RESULT:      -6.6      1.933      2.599
REMARK SMILES O=C(O)CCc1ccccc1
REMARK SMILES IDX 4 1 2 2 1 3 3 4 5 6 6 7 7 8 11 9 8 10 10 11 9 12
REMARK H PARENT 3 5
REMARK Flexibility Score: inf
ROOT
ATOM      1  C   UNL     1       8.243   0.246  -2.160  1.00  0.00     0.127 C 
ENDROOT
BRANCH   1   2
ATOM      2  C   UNL     1       9.376   0.385  -1.228  1.00  0.00     0.303 C 
ATOM      3  O   UNL     1       9.454  -0.392  -0.238  1.00  0.00    -0.252 OA
BRANCH   2   4
ATOM      4  O   UNL     1      10.376   1.352  -1.405  1.00  0.00    -0.481 OA
ATOM      5  H   UNL     1      10.117   2.250  -1.791  1.00  0.00     0.296 HD
ENDBRANCH   2   4
ENDBRANCH   1   2
BRANCH   1   6
ATOM      6  C   UNL     1       7.113  -0.578  -1.569  1.00  0.00     0.047 C 
BRANCH   6   7
ATOM      7  C   UNL     1       6.333   0.216  -0.585  1.00  0.00    -0.047 A 
ATOM      8  C   UNL     1       5.797   1.448  -0.934  1.00  0.00     0.004 A 
ATOM      9  C   UNL     1       6.108  -0.211   0.711  1.00  0.00     0.004 A 
ATOM     10  C   UNL     1       5.079   2.211  -0.042  1.00  0.00     0.000 A 
ATOM     11  C   UNL     1       5.389   0.556   1.603  1.00  0.00     0.000 A 
ATOM     12  C   UNL     1       4.862   1.777   1.250  1.00  0.00     0.000 A 
ENDBRANCH   6   7
ENDBRANCH   1   6
TORSDOF 4
ENDMDL
