@<TRIPOS>MOLECULE
/home/cewinharhar/GITHUB/reincatalyze/data/processed/docking_pred/2023-Apr-25-2248_maxeplen10_maxtrainstep1000_exh16_gamma099_lrac3e-4_lrcr1e-3/37a8b72800122466266a4bb22cdda1f56f02b914_ligand_2.pdbqt
 12 12 0 0 0
SMALL
GASTEIGER

@<TRIPOS>ATOM
      1  C          8.2430    0.2460   -2.1600 C.3     1  UNL1        0.1270
      2  C          9.3760    0.3850   -1.2280 C.2     1  UNL1        0.3030
      3  O          9.4540   -0.3920   -0.2380 O.2     1  UNL1       -0.2520
      4  O         10.3760    1.3520   -1.4050 O.3     1  UNL1       -0.4810
      5  H         10.1170    2.2500   -1.7910 H       1  UNL1        0.2960
      6  C          7.1130   -0.5780   -1.5690 C.3     1  UNL1        0.0470
      7  C          6.3330    0.2160   -0.5850 C.2     1  UNL1       -0.0470
      8  C          5.7970    1.4480   -0.9340 C.2     1  UNL1        0.0040
      9  C          6.1080   -0.2110    0.7110 C.2     1  UNL1        0.0040
     10  C          5.0790    2.2110   -0.0420 C.2     1  UNL1        0.0000
     11  C          5.3890    0.5560    1.6030 C.2     1  UNL1        0.0000
     12  C          4.8620    1.7770    1.2500 C.2     1  UNL1        0.0000
@<TRIPOS>BOND
     1     1     6    1
     2     1     2    1
     3     5     4    1
     4     6     7    1
     5     4     2    1
     6     2     3    2
     7     8     7    2
     8     8    10    1
     9     7     9    1
    10    10    12    2
    11     9    11    2
    12    12    11    1
