@<TRIPOS>MOLECULE
/home/cewinharhar/GITHUB/reincatalyze/data/processed/docking_pred/2023-Apr-25-2248_maxeplen10_maxtrainstep1000_exh16_gamma099_lrac3e-4_lrcr1e-3/37a8b72800122466266a4bb22cdda1f56f02b914_ligand_2.pdbqt
 12 12 0 0 0
SMALL
GASTEIGER

@<TRIPOS>ATOM
      1  C          8.0830   -2.3020    0.6180 C.3     1  UNL1        0.1270
      2  C          8.5070   -3.6650    0.9820 C.2     1  UNL1        0.3030
      3  O          9.7360   -3.9470    0.9750 O.2     1  UNL1       -0.2520
      4  O          7.5890   -4.6640    1.3400 O.3     1  UNL1       -0.4810
      5  H          7.2870   -4.7200    2.3030 H       1  UNL1        0.2960
      6  C          6.9160   -1.8190    1.4610 C.3     1  UNL1        0.0470
      7  C          6.3490   -0.5590    0.9140 C.2     1  UNL1       -0.0470
      8  C          6.5660   -0.2000   -0.4090 C.2     1  UNL1        0.0040
      9  C          5.5980    0.3170    1.6770 C.2     1  UNL1        0.0040
     10  C          6.0640    0.9650   -0.9420 C.2     1  UNL1        0.0000
     11  C          5.0960    1.4830    1.1410 C.2     1  UNL1        0.0000
     12  C          5.3160    1.8330   -0.1720 C.2     1  UNL1        0.0000
@<TRIPOS>BOND
     1    10     8    1
     2    10    12    2
     3     8     7    2
     4    12    11    1
     5     1     2    1
     6     1     6    1
     7     7     6    1
     8     7     9    1
     9     3     2    2
    10     2     4    1
    11    11     9    2
    12     4     5    1
