@<TRIPOS>MOLECULE
/home/cewinharhar/GITHUB/reincatalyze/data/processed/docking_pred/2023-Apr-25-2248_maxeplen10_maxtrainstep1000_exh16_gamma099_lrac3e-4_lrcr1e-3/37a8b72800122466266a4bb22cdda1f56f02b914_ligand_2.pdbqt
 12 12 0 0 0
SMALL
GASTEIGER

@<TRIPOS>ATOM
      1  C          8.3900   -0.7700   -1.9740 C.3     1  UNL1        0.1270
      2  C          8.3870   -1.9590   -2.8450 C.2     1  UNL1        0.3030
      3  O          7.2850   -2.4170   -3.2520 O.2     1  UNL1       -0.2520
      4  O          9.5710   -2.6000   -3.2400 O.3     1  UNL1       -0.4810
      5  H          9.5090   -3.5300   -3.6320 H       1  UNL1        0.2960
      6  C          7.0930    0.0130   -2.0680 C.3     1  UNL1        0.0470
      7  C          6.4740    0.1800   -0.7270 C.2     1  UNL1       -0.0470
      8  C          6.5710   -0.8220    0.2280 C.2     1  UNL1        0.0040
      9  C          5.7730    1.3150   -0.3620 C.2     1  UNL1        0.0040
     10  C          6.0000   -0.7020    1.4740 C.2     1  UNL1        0.0000
     11  C          5.2020    1.4340    0.8860 C.2     1  UNL1        0.0000
     12  C          5.3010    0.4350    1.8270 C.2     1  UNL1        0.0000
@<TRIPOS>BOND
     1     5     4    1
     2     3     2    2
     3     4     2    1
     4     2     1    1
     5     6     1    1
     6     6     7    1
     7     7     9    2
     8     7     8    1
     9     9    11    1
    10     8    10    2
    11    11    12    2
    12    10    12    1
