@<TRIPOS>MOLECULE
/home/cewinharhar/GITHUB/reincatalyze/data/processed/docking_pred/2023-Apr-25-2248_maxeplen10_maxtrainstep1000_exh16_gamma099_lrac3e-4_lrcr1e-3/37a8b72800122466266a4bb22cdda1f56f02b914_ligand_2.pdbqt
 12 12 0 0 0
SMALL
GASTEIGER

@<TRIPOS>ATOM
      1  C          4.9850    1.7900    0.7290 C.3     1  UNL1        0.1270
      2  C          4.4600    1.1160    1.9290 C.2     1  UNL1        0.3030
      3  O          5.1460    0.2070    2.4700 O.2     1  UNL1       -0.2520
      4  O          3.2200    1.4500    2.4920 O.3     1  UNL1       -0.4810
      5  H          2.6940    2.2120    2.0860 H       1  UNL1        0.2960
      6  C          6.4980    1.9110    0.7540 C.3     1  UNL1        0.0470
      7  C          7.1160    1.1030   -0.3300 C.2     1  UNL1       -0.0470
      8  C          8.4620    1.2420   -0.6370 C.2     1  UNL1        0.0040
      9  C          6.4000    0.1930   -1.0860 C.2     1  UNL1        0.0040
     10  C          9.0610    0.5160   -1.6410 C.2     1  UNL1        0.0000
     11  C          7.0010   -0.5330   -2.0910 C.2     1  UNL1        0.0000
     12  C          8.3360   -0.3880   -2.3910 C.2     1  UNL1        0.0000
@<TRIPOS>BOND
     1    12    11    2
     2    12    10    1
     3    11     9    1
     4    10     8    2
     5     9     7    2
     6     8     7    1
     7     7     6    1
     8     1     6    1
     9     1     2    1
    10     2     3    2
    11     2     4    1
    12     5     4    1
