@<TRIPOS>MOLECULE
/home/cewinharhar/GITHUB/reincatalyze/data/processed/docking_pred/2023-Apr-25-2248_maxeplen10_maxtrainstep1000_exh16_gamma099_lrac3e-4_lrcr1e-3/37aabdb081a78d2f2d4d4e560ab17afff45a2586_ligand_2.pdbqt
 12 12 0 0 0
SMALL
GASTEIGER

@<TRIPOS>ATOM
      1  C          8.3870   -0.5950   -2.2030 C.3     1  UNL1        0.1270
      2  C          8.4320   -1.8860   -2.9140 C.2     1  UNL1        0.3030
      3  O          9.5420   -2.4660   -3.0610 O.2     1  UNL1       -0.2520
      4  O          7.2800   -2.4940   -3.4320 O.3     1  UNL1       -0.4810
      5  H          7.3760   -3.3750   -3.9180 H       1  UNL1        0.2960
      6  C          6.9870   -0.0120   -2.1610 C.3     1  UNL1        0.0470
      7  C          6.4770    0.0510   -0.7660 C.2     1  UNL1       -0.0470
      8  C          6.6120   -1.0360    0.0860 C.2     1  UNL1        0.0040
      9  C          5.8440    1.1670   -0.2500 C.2     1  UNL1        0.0040
     10  C          6.1420   -1.0130    1.3790 C.2     1  UNL1        0.0000
     11  C          5.3740    1.1880    1.0460 C.2     1  UNL1        0.0000
     12  C          5.5100    0.1050    1.8840 C.2     1  UNL1        0.0000
@<TRIPOS>BOND
     1     5     4    1
     2     4     2    1
     3     3     2    2
     4     2     1    1
     5     1     6    1
     6     6     7    1
     7     7     9    2
     8     7     8    1
     9     9    11    1
    10     8    10    2
    11    11    12    2
    12    10    12    1
