MODEL 1
REMARK VINA RESULT:      -7.3      0.000      0.000
REMARK SMILES O=C(O)CCc1ccccc1
REMARK SMILES IDX 4 1 2 2 1 3 3 4 5 6 6 7 7 8 11 9 8 10 10 11 9 12
REMARK H PARENT 3 5
REMARK Flexibility Score: inf
ROOT
ATOM      1  C   UNL     1       8.387  -0.595  -2.203  1.00  0.00     0.127 C 
ENDROOT
BRANCH   1   2
ATOM      2  C   UNL     1       8.432  -1.886  -2.914  1.00  0.00     0.303 C 
ATOM      3  O   UNL     1       9.542  -2.466  -3.061  1.00  0.00    -0.252 OA
BRANCH   2   4
ATOM      4  O   UNL     1       7.280  -2.494  -3.432  1.00  0.00    -0.481 OA
ATOM      5  H   UNL     1       7.376  -3.375  -3.918  1.00  0.00     0.296 HD
ENDBRANCH   2   4
ENDBRANCH   1   2
BRANCH   1   6
ATOM      6  C   UNL     1       6.987  -0.012  -2.161  1.00  0.00     0.047 C 
BRANCH   6   7
ATOM      7  C   UNL     1       6.477   0.051  -0.766  1.00  0.00    -0.047 A 
ATOM      8  C   UNL     1       6.612  -1.036   0.086  1.00  0.00     0.004 A 
ATOM      9  C   UNL     1       5.844   1.167  -0.250  1.00  0.00     0.004 A 
ATOM     10  C   UNL     1       6.142  -1.013   1.379  1.00  0.00     0.000 A 
ATOM     11  C   UNL     1       5.374   1.188   1.046  1.00  0.00     0.000 A 
ATOM     12  C   UNL     1       5.510   0.105   1.884  1.00  0.00     0.000 A 
ENDBRANCH   6   7
ENDBRANCH   1   6
TORSDOF 4
ENDMDL
MODEL 2
REMARK VINA RESULT:      -7.3      0.124      1.724
REMARK SMILES O=C(O)CCc1ccccc1
REMARK SMILES IDX 4 1 2 2 1 3 3 4 5 6 6 7 7 8 11 9 8 10 10 11 9 12
REMARK H PARENT 3 5
REMARK Flexibility Score: inf
ROOT
ATOM      1  C   UNL     1       8.386  -0.638  -2.150  1.00  0.00     0.127 C 
ENDROOT
BRANCH   1   2
ATOM      2  C   UNL     1       8.393  -1.909  -2.895  1.00  0.00     0.303 C 
ATOM      3  O   UNL     1       7.295  -2.422  -3.244  1.00  0.00    -0.252 OA
BRANCH   2   4
ATOM      4  O   UNL     1       9.583  -2.570  -3.234  1.00  0.00    -0.481 OA
ATOM      5  H   UNL     1      10.194  -2.878  -2.489  1.00  0.00     0.296 HD
ENDBRANCH   2   4
ENDBRANCH   1   2
BRANCH   1   6
ATOM      6  C   UNL     1       7.011   0.006  -2.128  1.00  0.00     0.047 C 
BRANCH   6   7
ATOM      7  C   UNL     1       6.472   0.066  -0.744  1.00  0.00    -0.047 A 
ATOM      8  C   UNL     1       5.806   1.196  -0.292  1.00  0.00     0.004 A 
ATOM      9  C   UNL     1       6.609  -0.974   0.157  1.00  0.00     0.004 A 
ATOM     10  C   UNL     1       5.305   1.286   0.986  1.00  0.00     0.000 A 
ATOM     11  C   UNL     1       6.106  -0.882   1.437  1.00  0.00     0.000 A 
ATOM     12  C   UNL     1       5.447   0.243   1.879  1.00  0.00     0.000 A 
ENDBRANCH   6   7
ENDBRANCH   1   6
TORSDOF 4
ENDMDL
MODEL 3
REMARK VINA RESULT:      -6.8      3.401      5.089
REMARK SMILES O=C(O)CCc1ccccc1
REMARK SMILES IDX 4 1 2 2 1 3 3 4 5 6 6 7 7 8 11 9 8 10 10 11 9 12
REMARK H PARENT 3 5
REMARK Flexibility Score: inf
ROOT
ATOM      1  C   UNL     1       4.990   1.794   0.703  1.00  0.00     0.127 C 
ENDROOT
BRANCH   1   2
ATOM      2  C   UNL     1       4.472   1.127   1.911  1.00  0.00     0.303 C 
ATOM      3  O   UNL     1       5.164   0.226   2.458  1.00  0.00    -0.252 OA
BRANCH   2   4
ATOM      4  O   UNL     1       3.233   1.462   2.476  1.00  0.00    -0.481 OA
ATOM      5  H   UNL     1       3.127   1.403   3.480  1.00  0.00     0.296 HD
ENDBRANCH   2   4
ENDBRANCH   1   2
BRANCH   1   6
ATOM      6  C   UNL     1       6.502   1.930   0.727  1.00  0.00     0.047 C 
BRANCH   6   7
ATOM      7  C   UNL     1       7.128   1.113  -0.346  1.00  0.00    -0.047 A 
ATOM      8  C   UNL     1       8.480   1.234  -0.631  1.00  0.00     0.004 A 
ATOM      9  C   UNL     1       6.413   0.211  -1.112  1.00  0.00     0.004 A 
ATOM     10  C   UNL     1       9.086   0.500  -1.624  1.00  0.00     0.000 A 
ATOM     11  C   UNL     1       7.021  -0.524  -2.107  1.00  0.00     0.000 A 
ATOM     12  C   UNL     1       8.363  -0.397  -2.385  1.00  0.00     0.000 A 
ENDBRANCH   6   7
ENDBRANCH   1   6
TORSDOF 4
ENDMDL
MODEL 4
REMARK VINA RESULT:      -6.7      1.957      2.689
REMARK SMILES O=C(O)CCc1ccccc1
REMARK SMILES IDX 4 1 2 2 1 3 3 4 5 6 6 7 7 8 11 9 8 10 10 11 9 12
REMARK H PARENT 3 5
REMARK Flexibility Score: inf
ROOT
ATOM      1  C   UNL     1       8.288   0.163  -2.192  1.00  0.00     0.127 C 
ENDROOT
BRANCH   1   2
ATOM      2  C   UNL     1       9.409   0.353  -1.253  1.00  0.00     0.303 C 
ATOM      3  O   UNL     1       9.482  -0.382  -0.231  1.00  0.00    -0.252 OA
BRANCH   2   4
ATOM      4  O   UNL     1      10.400   1.323  -1.458  1.00  0.00    -0.481 OA
ATOM      5  H   UNL     1      11.321   1.021  -1.744  1.00  0.00     0.296 HD
ENDBRANCH   2   4
ENDBRANCH   1   2
BRANCH   1   6
ATOM      6  C   UNL     1       7.155  -0.639  -1.577  1.00  0.00     0.047 C 
BRANCH   6   7
ATOM      7  C   UNL     1       6.370   0.191  -0.626  1.00  0.00    -0.047 A 
ATOM      8  C   UNL     1       5.843   1.412  -1.021  1.00  0.00     0.004 A 
ATOM      9  C   UNL     1       6.133  -0.192   0.681  1.00  0.00     0.004 A 
ATOM     10  C   UNL     1       5.121   2.208  -0.161  1.00  0.00     0.000 A 
ATOM     11  C   UNL     1       5.409   0.606   1.541  1.00  0.00     0.000 A 
ATOM     12  C   UNL     1       4.891   1.818   1.143  1.00  0.00     0.000 A 
ENDBRANCH   6   7
ENDBRANCH   1   6
TORSDOF 4
ENDMDL
MODEL 5
REMARK VINA RESULT:      -6.6      2.039      2.577
REMARK SMILES O=C(O)CCc1ccccc1
REMARK SMILES IDX 4 1 2 2 1 3 3 4 5 6 6 7 7 8 11 9 8 10 10 11 9 12
REMARK H PARENT 3 5
REMARK Flexibility Score: inf
ROOT
ATOM      1  C   UNL     1       7.942  -2.324   0.691  1.00  0.00     0.127 C 
ENDROOT
BRANCH   1   2
ATOM      2  C   UNL     1       8.783  -3.462   0.280  1.00  0.00     0.303 C 
ATOM      3  O   UNL     1       9.663  -3.892   1.074  1.00  0.00    -0.252 OA
BRANCH   2   4
ATOM      4  O   UNL     1       8.636  -4.088  -0.967  1.00  0.00    -0.481 OA
ATOM      5  H   UNL     1       9.206  -4.898  -1.171  1.00  0.00     0.296 HD
ENDBRANCH   2   4
ENDBRANCH   1   2
BRANCH   1   6
ATOM      6  C   UNL     1       7.546  -1.449  -0.485  1.00  0.00     0.047 C 
BRANCH   6   7
ATOM      7  C   UNL     1       6.665  -0.335  -0.047  1.00  0.00    -0.047 A 
ATOM      8  C   UNL     1       6.142  -0.310   1.238  1.00  0.00     0.004 A 
ATOM      9  C   UNL     1       6.314   0.713  -0.878  1.00  0.00     0.004 A 
ATOM     10  C   UNL     1       5.315   0.701   1.670  1.00  0.00     0.000 A 
ATOM     11  C   UNL     1       5.486   1.725  -0.443  1.00  0.00     0.000 A 
ATOM     12  C   UNL     1       4.969   1.742   0.832  1.00  0.00     0.000 A 
ENDBRANCH   6   7
ENDBRANCH   1   6
TORSDOF 4
ENDMDL
