@<TRIPOS>MOLECULE
/home/cewinharhar/GITHUB/reincatalyze/data/processed/docking_pred/2023-Apr-25-2248_maxeplen10_maxtrainstep1000_exh16_gamma099_lrac3e-4_lrcr1e-3/37aabdb081a78d2f2d4d4e560ab17afff45a2586_ligand_2.pdbqt
 12 12 0 0 0
SMALL
GASTEIGER

@<TRIPOS>ATOM
      1  C          7.9420   -2.3240    0.6910 C.3     1  UNL1        0.1270
      2  C          8.7830   -3.4620    0.2800 C.2     1  UNL1        0.3030
      3  O          9.6630   -3.8920    1.0740 O.2     1  UNL1       -0.2520
      4  O          8.6360   -4.0880   -0.9670 O.3     1  UNL1       -0.4810
      5  H          9.2060   -4.8980   -1.1710 H       1  UNL1        0.2960
      6  C          7.5460   -1.4490   -0.4850 C.3     1  UNL1        0.0470
      7  C          6.6650   -0.3350   -0.0470 C.2     1  UNL1       -0.0470
      8  C          6.1420   -0.3100    1.2380 C.2     1  UNL1        0.0040
      9  C          6.3140    0.7130   -0.8780 C.2     1  UNL1        0.0040
     10  C          5.3150    0.7010    1.6700 C.2     1  UNL1        0.0000
     11  C          5.4860    1.7250   -0.4430 C.2     1  UNL1        0.0000
     12  C          4.9690    1.7420    0.8320 C.2     1  UNL1        0.0000
@<TRIPOS>BOND
     1     5     4    1
     2     4     2    1
     3     9    11    1
     4     9     7    2
     5     6     7    1
     6     6     1    1
     7    11    12    2
     8     7     8    1
     9     2     1    1
    10     2     3    2
    11    12    10    1
    12     8    10    2
