@<TRIPOS>MOLECULE
/home/cewinharhar/GITHUB/reincatalyze/data/processed/docking_pred/2023-Apr-25-2248_maxeplen10_maxtrainstep1000_exh16_gamma099_lrac3e-4_lrcr1e-3/37aabdb081a78d2f2d4d4e560ab17afff45a2586_ligand_2.pdbqt
 12 12 0 0 0
SMALL
GASTEIGER

@<TRIPOS>ATOM
      1  C          4.9900    1.7940    0.7030 C.3     1  UNL1        0.1270
      2  C          4.4720    1.1270    1.9110 C.2     1  UNL1        0.3030
      3  O          5.1640    0.2260    2.4580 O.2     1  UNL1       -0.2520
      4  O          3.2330    1.4620    2.4760 O.3     1  UNL1       -0.4810
      5  H          3.1270    1.4030    3.4800 H       1  UNL1        0.2960
      6  C          6.5020    1.9300    0.7270 C.3     1  UNL1        0.0470
      7  C          7.1280    1.1130   -0.3460 C.2     1  UNL1       -0.0470
      8  C          8.4800    1.2340   -0.6310 C.2     1  UNL1        0.0040
      9  C          6.4130    0.2110   -1.1120 C.2     1  UNL1        0.0040
     10  C          9.0860    0.5000   -1.6240 C.2     1  UNL1        0.0000
     11  C          7.0210   -0.5240   -2.1070 C.2     1  UNL1        0.0000
     12  C          8.3630   -0.3970   -2.3850 C.2     1  UNL1        0.0000
@<TRIPOS>BOND
     1    12    11    2
     2    12    10    1
     3    11     9    1
     4    10     8    2
     5     9     7    2
     6     8     7    1
     7     7     6    1
     8     1     6    1
     9     1     2    1
    10     2     3    2
    11     2     4    1
    12     4     5    1
