@<TRIPOS>MOLECULE
/home/cewinharhar/GITHUB/reincatalyze/data/processed/docking_pred/2023-Apr-25-2248_maxeplen10_maxtrainstep1000_exh16_gamma099_lrac3e-4_lrcr1e-3/37aabdb081a78d2f2d4d4e560ab17afff45a2586_ligand_2.pdbqt
 12 12 0 0 0
SMALL
GASTEIGER

@<TRIPOS>ATOM
      1  C          8.2880    0.1630   -2.1920 C.3     1  UNL1        0.1270
      2  C          9.4090    0.3530   -1.2530 C.2     1  UNL1        0.3030
      3  O          9.4820   -0.3820   -0.2310 O.2     1  UNL1       -0.2520
      4  O         10.4000    1.3230   -1.4580 O.3     1  UNL1       -0.4810
      5  H         11.3210    1.0210   -1.7440 H       1  UNL1        0.2960
      6  C          7.1550   -0.6390   -1.5770 C.3     1  UNL1        0.0470
      7  C          6.3700    0.1910   -0.6260 C.2     1  UNL1       -0.0470
      8  C          5.8430    1.4120   -1.0210 C.2     1  UNL1        0.0040
      9  C          6.1330   -0.1920    0.6810 C.2     1  UNL1        0.0040
     10  C          5.1210    2.2080   -0.1610 C.2     1  UNL1        0.0000
     11  C          5.4090    0.6060    1.5410 C.2     1  UNL1        0.0000
     12  C          4.8910    1.8180    1.1430 C.2     1  UNL1        0.0000
@<TRIPOS>BOND
     1     1     6    1
     2     1     2    1
     3     5     4    1
     4     6     7    1
     5     4     2    1
     6     2     3    2
     7     8     7    2
     8     8    10    1
     9     7     9    1
    10    10    12    2
    11     9    11    2
    12    12    11    1
