@<TRIPOS>MOLECULE
/home/cewinharhar/GITHUB/reincatalyze/data/processed/docking_pred/2023-Apr-25-2248_maxeplen10_maxtrainstep1000_exh16_gamma099_lrac3e-4_lrcr1e-3/37aabdb081a78d2f2d4d4e560ab17afff45a2586_ligand_2.pdbqt
 12 12 0 0 0
SMALL
GASTEIGER

@<TRIPOS>ATOM
      1  C          8.3860   -0.6380   -2.1500 C.3     1  UNL1        0.1270
      2  C          8.3930   -1.9090   -2.8950 C.2     1  UNL1        0.3030
      3  O          7.2950   -2.4220   -3.2440 O.2     1  UNL1       -0.2520
      4  O          9.5830   -2.5700   -3.2340 O.3     1  UNL1       -0.4810
      5  H         10.1940   -2.8780   -2.4890 H       1  UNL1        0.2960
      6  C          7.0110    0.0060   -2.1280 C.3     1  UNL1        0.0470
      7  C          6.4720    0.0660   -0.7440 C.2     1  UNL1       -0.0470
      8  C          5.8060    1.1960   -0.2920 C.2     1  UNL1        0.0040
      9  C          6.6090   -0.9740    0.1570 C.2     1  UNL1        0.0040
     10  C          5.3050    1.2860    0.9860 C.2     1  UNL1        0.0000
     11  C          6.1060   -0.8820    1.4370 C.2     1  UNL1        0.0000
     12  C          5.4470    0.2430    1.8790 C.2     1  UNL1        0.0000
@<TRIPOS>BOND
     1     3     2    2
     2     4     2    1
     3     4     5    1
     4     2     1    1
     5     1     6    1
     6     6     7    1
     7     7     8    2
     8     7     9    1
     9     8    10    1
    10     9    11    2
    11    10    12    2
    12    11    12    1
