MODEL 1
REMARK VINA RESULT:      -7.1      0.000      0.000
REMARK SMILES O=C(O)CCc1ccccc1
REMARK SMILES IDX 4 1 2 2 1 3 3 4 5 6 6 7 7 8 11 9 8 10 10 11 9 12
REMARK H PARENT 3 5
REMARK Flexibility Score: inf
ROOT
ATOM      1  C   UNL     1       8.392  -0.788  -1.949  1.00  0.00     0.127 C 
ENDROOT
BRANCH   1   2
ATOM      2  C   UNL     1       8.421  -1.936  -2.873  1.00  0.00     0.303 C 
ATOM      3  O   UNL     1       7.332  -2.455  -3.239  1.00  0.00    -0.252 OA
BRANCH   2   4
ATOM      4  O   UNL     1       9.621  -2.471  -3.363  1.00  0.00    -0.481 OA
ATOM      5  H   UNL     1      10.201  -3.011  -2.736  1.00  0.00     0.296 HD
ENDBRANCH   2   4
ENDBRANCH   1   2
BRANCH   1   6
ATOM      6  C   UNL     1       7.098  -0.001  -2.052  1.00  0.00     0.047 C 
BRANCH   6   7
ATOM      7  C   UNL     1       6.473   0.174  -0.716  1.00  0.00    -0.047 A 
ATOM      8  C   UNL     1       6.532  -0.839   0.231  1.00  0.00     0.004 A 
ATOM      9  C   UNL     1       5.801   1.325  -0.348  1.00  0.00     0.004 A 
ATOM     10  C   UNL     1       5.953  -0.713   1.473  1.00  0.00     0.000 A 
ATOM     11  C   UNL     1       5.222   1.450   0.897  1.00  0.00     0.000 A 
ATOM     12  C   UNL     1       5.284   0.441   1.830  1.00  0.00     0.000 A 
ENDBRANCH   6   7
ENDBRANCH   1   6
TORSDOF 4
ENDMDL
MODEL 2
REMARK VINA RESULT:      -7.0      0.097      1.424
REMARK SMILES O=C(O)CCc1ccccc1
REMARK SMILES IDX 4 1 2 2 1 3 3 4 5 6 6 7 7 8 11 9 8 10 10 11 9 12
REMARK H PARENT 3 5
REMARK Flexibility Score: inf
ROOT
ATOM      1  C   UNL     1       8.412  -0.701  -2.050  1.00  0.00     0.127 C 
ENDROOT
BRANCH   1   2
ATOM      2  C   UNL     1       8.434  -1.904  -2.900  1.00  0.00     0.303 C 
ATOM      3  O   UNL     1       7.342  -2.451  -3.217  1.00  0.00    -0.252 OA
BRANCH   2   4
ATOM      4  O   UNL     1       9.629  -2.465  -3.372  1.00  0.00    -0.481 OA
ATOM      5  H   UNL     1      10.348  -2.704  -2.703  1.00  0.00     0.296 HD
ENDBRANCH   2   4
ENDBRANCH   1   2
BRANCH   1   6
ATOM      6  C   UNL     1       7.065  -0.000  -2.082  1.00  0.00     0.047 C 
BRANCH   6   7
ATOM      7  C   UNL     1       6.478   0.089  -0.720  1.00  0.00    -0.047 A 
ATOM      8  C   UNL     1       5.812   1.235  -0.309  1.00  0.00     0.004 A 
ATOM      9  C   UNL     1       6.568  -0.938   0.202  1.00  0.00     0.004 A 
ATOM     10  C   UNL     1       5.267   1.352   0.949  1.00  0.00     0.000 A 
ATOM     11  C   UNL     1       6.021  -0.819   1.462  1.00  0.00     0.000 A 
ATOM     12  C   UNL     1       5.363   0.322   1.862  1.00  0.00     0.000 A 
ENDBRANCH   6   7
ENDBRANCH   1   6
TORSDOF 4
ENDMDL
MODEL 3
REMARK VINA RESULT:      -6.7      1.532      2.237
REMARK SMILES O=C(O)CCc1ccccc1
REMARK SMILES IDX 4 1 2 2 1 3 3 4 5 6 6 7 7 8 11 9 8 10 10 11 9 12
REMARK H PARENT 3 5
REMARK Flexibility Score: inf
ROOT
ATOM      1  C   UNL     1       8.622   0.558  -1.876  1.00  0.00     0.127 C 
ENDROOT
BRANCH   1   2
ATOM      2  C   UNL     1       9.425   0.218  -3.063  1.00  0.00     0.303 C 
ATOM      3  O   UNL     1      10.568  -0.291  -2.905  1.00  0.00    -0.252 OA
BRANCH   2   4
ATOM      4  O   UNL     1       8.962   0.440  -4.368  1.00  0.00    -0.481 OA
ATOM      5  H   UNL     1       8.594   1.353  -4.601  1.00  0.00     0.296 HD
ENDBRANCH   2   4
ENDBRANCH   1   2
BRANCH   1   6
ATOM      6  C   UNL     1       7.255  -0.101  -1.900  1.00  0.00     0.047 C 
BRANCH   6   7
ATOM      7  C   UNL     1       6.538   0.113  -0.616  1.00  0.00    -0.047 A 
ATOM      8  C   UNL     1       5.869   1.303  -0.368  1.00  0.00     0.004 A 
ATOM      9  C   UNL     1       6.503  -0.836   0.390  1.00  0.00     0.004 A 
ATOM     10  C   UNL     1       5.205   1.536   0.814  1.00  0.00     0.000 A 
ATOM     11  C   UNL     1       5.838  -0.601   1.573  1.00  0.00     0.000 A 
ATOM     12  C   UNL     1       5.178   0.583   1.812  1.00  0.00     0.000 A 
ENDBRANCH   6   7
ENDBRANCH   1   6
TORSDOF 4
ENDMDL
MODEL 4
REMARK VINA RESULT:      -6.6      3.317      5.206
REMARK SMILES O=C(O)CCc1ccccc1
REMARK SMILES IDX 4 1 2 2 1 3 3 4 5 6 6 7 7 8 11 9 8 10 10 11 9 12
REMARK H PARENT 3 5
REMARK Flexibility Score: inf
ROOT
ATOM      1  C   UNL     1       5.616   1.458  -0.438  1.00  0.00     0.127 C 
ENDROOT
BRANCH   1   2
ATOM      2  C   UNL     1       5.352   1.905   0.941  1.00  0.00     0.303 C 
ATOM      3  O   UNL     1       4.897   1.077   1.776  1.00  0.00    -0.252 OA
BRANCH   2   4
ATOM      4  O   UNL     1       5.592   3.221   1.360  1.00  0.00    -0.481 OA
ATOM      5  H   UNL     1       4.802   3.804   1.601  1.00  0.00     0.296 HD
ENDBRANCH   2   4
ENDBRANCH   1   2
BRANCH   1   6
ATOM      6  C   UNL     1       6.408   0.164  -0.481  1.00  0.00     0.047 C 
BRANCH   6   7
ATOM      7  C   UNL     1       7.640   0.319  -1.297  1.00  0.00    -0.047 A 
ATOM      8  C   UNL     1       7.647  -0.029  -2.641  1.00  0.00     0.004 A 
ATOM      9  C   UNL     1       8.827   0.800  -0.776  1.00  0.00     0.004 A 
ATOM     10  C   UNL     1       8.774   0.093  -3.420  1.00  0.00     0.000 A 
ATOM     11  C   UNL     1       9.955   0.922  -1.559  1.00  0.00     0.000 A 
ATOM     12  C   UNL     1       9.955   0.573  -2.890  1.00  0.00     0.000 A 
ENDBRANCH   6   7
ENDBRANCH   1   6
TORSDOF 4
ENDMDL
MODEL 5
REMARK VINA RESULT:      -6.5      3.272      5.237
REMARK SMILES O=C(O)CCc1ccccc1
REMARK SMILES IDX 4 1 2 2 1 3 3 4 5 6 6 7 7 8 11 9 8 10 10 11 9 12
REMARK H PARENT 3 5
REMARK Flexibility Score: inf
ROOT
ATOM      1  C   UNL     1       5.657   1.168  -0.208  1.00  0.00     0.127 C 
ENDROOT
BRANCH   1   2
ATOM      2  C   UNL     1       5.244   1.638   1.126  1.00  0.00     0.303 C 
ATOM      3  O   UNL     1       5.242   2.876   1.366  1.00  0.00    -0.252 OA
BRANCH   2   4
ATOM      4  O   UNL     1       4.850   0.754   2.141  1.00  0.00    -0.481 OA
ATOM      5  H   UNL     1       4.352   1.126   2.939  1.00  0.00     0.296 HD
ENDBRANCH   2   4
ENDBRANCH   1   2
BRANCH   1   6
ATOM      6  C   UNL     1       6.400  -0.154  -0.146  1.00  0.00     0.047 C 
BRANCH   6   7
ATOM      7  C   UNL     1       7.434  -0.235  -1.211  1.00  0.00    -0.047 A 
ATOM      8  C   UNL     1       8.470   0.686  -1.262  1.00  0.00     0.004 A 
ATOM      9  C   UNL     1       7.418  -1.204  -2.197  1.00  0.00     0.004 A 
ATOM     10  C   UNL     1       9.436   0.645  -2.241  1.00  0.00     0.000 A 
ATOM     11  C   UNL     1       8.387  -1.244  -3.177  1.00  0.00     0.000 A 
ATOM     12  C   UNL     1       9.411  -0.326  -3.222  1.00  0.00     0.000 A 
ENDBRANCH   6   7
ENDBRANCH   1   6
TORSDOF 4
ENDMDL
