@<TRIPOS>MOLECULE
/home/cewinharhar/GITHUB/reincatalyze/data/processed/docking_pred/2023-Apr-25-2248_maxeplen10_maxtrainstep1000_exh16_gamma099_lrac3e-4_lrcr1e-3/3b11ad51370e6150fddf32b3aa65dd5e24197163_ligand_2.pdbqt
 12 12 0 0 0
SMALL
GASTEIGER

@<TRIPOS>ATOM
      1  C          8.6220    0.5580   -1.8760 C.3     1  UNL1        0.1270
      2  C          9.4250    0.2180   -3.0630 C.2     1  UNL1        0.3030
      3  O         10.5680   -0.2910   -2.9050 O.2     1  UNL1       -0.2520
      4  O          8.9620    0.4400   -4.3680 O.3     1  UNL1       -0.4810
      5  H          8.5940    1.3530   -4.6010 H       1  UNL1        0.2960
      6  C          7.2550   -0.1010   -1.9000 C.3     1  UNL1        0.0470
      7  C          6.5380    0.1130   -0.6160 C.2     1  UNL1       -0.0470
      8  C          5.8690    1.3030   -0.3680 C.2     1  UNL1        0.0040
      9  C          6.5030   -0.8360    0.3900 C.2     1  UNL1        0.0040
     10  C          5.2050    1.5360    0.8140 C.2     1  UNL1        0.0000
     11  C          5.8380   -0.6010    1.5730 C.2     1  UNL1        0.0000
     12  C          5.1780    0.5830    1.8120 C.2     1  UNL1        0.0000
@<TRIPOS>BOND
     1     5     4    1
     2     4     2    1
     3     2     3    2
     4     2     1    1
     5     6     1    1
     6     6     7    1
     7     7     8    2
     8     7     9    1
     9     8    10    1
    10     9    11    2
    11    10    12    2
    12    11    12    1
