@<TRIPOS>MOLECULE
/home/cewinharhar/GITHUB/reincatalyze/data/processed/docking_pred/2023-Apr-25-2248_maxeplen10_maxtrainstep1000_exh16_gamma099_lrac3e-4_lrcr1e-3/3b11ad51370e6150fddf32b3aa65dd5e24197163_ligand_2.pdbqt
 12 12 0 0 0
SMALL
GASTEIGER

@<TRIPOS>ATOM
      1  C          8.4120   -0.7010   -2.0500 C.3     1  UNL1        0.1270
      2  C          8.4340   -1.9040   -2.9000 C.2     1  UNL1        0.3030
      3  O          7.3420   -2.4510   -3.2170 O.2     1  UNL1       -0.2520
      4  O          9.6290   -2.4650   -3.3720 O.3     1  UNL1       -0.4810
      5  H         10.3480   -2.7040   -2.7030 H       1  UNL1        0.2960
      6  C          7.0650   -0.0000   -2.0820 C.3     1  UNL1        0.0470
      7  C          6.4780    0.0890   -0.7200 C.2     1  UNL1       -0.0470
      8  C          5.8120    1.2350   -0.3090 C.2     1  UNL1        0.0040
      9  C          6.5680   -0.9380    0.2020 C.2     1  UNL1        0.0040
     10  C          5.2670    1.3520    0.9490 C.2     1  UNL1        0.0000
     11  C          6.0210   -0.8190    1.4620 C.2     1  UNL1        0.0000
     12  C          5.3630    0.3220    1.8620 C.2     1  UNL1        0.0000
@<TRIPOS>BOND
     1     4     2    1
     2     4     5    1
     3     3     2    2
     4     2     1    1
     5     6     1    1
     6     6     7    1
     7     7     8    2
     8     7     9    1
     9     8    10    1
    10     9    11    2
    11    10    12    2
    12    11    12    1
