@<TRIPOS>MOLECULE
/home/cewinharhar/GITHUB/reincatalyze/data/processed/docking_pred/2023-Apr-25-2248_maxeplen10_maxtrainstep1000_exh16_gamma099_lrac3e-4_lrcr1e-3/3b11ad51370e6150fddf32b3aa65dd5e24197163_ligand_2.pdbqt
 12 12 0 0 0
SMALL
GASTEIGER

@<TRIPOS>ATOM
      1  C          8.3920   -0.7880   -1.9490 C.3     1  UNL1        0.1270
      2  C          8.4210   -1.9360   -2.8730 C.2     1  UNL1        0.3030
      3  O          7.3320   -2.4550   -3.2390 O.2     1  UNL1       -0.2520
      4  O          9.6210   -2.4710   -3.3630 O.3     1  UNL1       -0.4810
      5  H         10.2010   -3.0110   -2.7360 H       1  UNL1        0.2960
      6  C          7.0980   -0.0010   -2.0520 C.3     1  UNL1        0.0470
      7  C          6.4730    0.1740   -0.7160 C.2     1  UNL1       -0.0470
      8  C          6.5320   -0.8390    0.2310 C.2     1  UNL1        0.0040
      9  C          5.8010    1.3250   -0.3480 C.2     1  UNL1        0.0040
     10  C          5.9530   -0.7130    1.4730 C.2     1  UNL1        0.0000
     11  C          5.2220    1.4500    0.8970 C.2     1  UNL1        0.0000
     12  C          5.2840    0.4410    1.8300 C.2     1  UNL1        0.0000
@<TRIPOS>BOND
     1     4     2    1
     2     4     5    1
     3     3     2    2
     4     2     1    1
     5     6     1    1
     6     6     7    1
     7     7     9    2
     8     7     8    1
     9     9    11    1
    10     8    10    2
    11    11    12    2
    12    10    12    1
