@<TRIPOS>MOLECULE
/home/cewinharhar/GITHUB/reincatalyze/data/processed/docking_pred/2023-Apr-25-2248_maxeplen10_maxtrainstep1000_exh16_gamma099_lrac3e-4_lrcr1e-3/3b11ad51370e6150fddf32b3aa65dd5e24197163_ligand_2.pdbqt
 12 12 0 0 0
SMALL
GASTEIGER

@<TRIPOS>ATOM
      1  C          5.6570    1.1680   -0.2080 C.3     1  UNL1        0.1270
      2  C          5.2440    1.6380    1.1260 C.2     1  UNL1        0.3030
      3  O          5.2420    2.8760    1.3660 O.2     1  UNL1       -0.2520
      4  O          4.8500    0.7540    2.1410 O.3     1  UNL1       -0.4810
      5  H          4.3520    1.1260    2.9390 H       1  UNL1        0.2960
      6  C          6.4000   -0.1540   -0.1460 C.3     1  UNL1        0.0470
      7  C          7.4340   -0.2350   -1.2110 C.2     1  UNL1       -0.0470
      8  C          8.4700    0.6860   -1.2620 C.2     1  UNL1        0.0040
      9  C          7.4180   -1.2040   -2.1970 C.2     1  UNL1        0.0040
     10  C          9.4360    0.6450   -2.2410 C.2     1  UNL1        0.0000
     11  C          8.3870   -1.2440   -3.1770 C.2     1  UNL1        0.0000
     12  C          9.4110   -0.3260   -3.2220 C.2     1  UNL1        0.0000
@<TRIPOS>BOND
     1    12    11    2
     2    12    10    1
     3    11     9    1
     4    10     8    2
     5     9     7    2
     6     8     7    1
     7     7     6    1
     8     1     6    1
     9     1     2    1
    10     2     3    2
    11     2     4    1
    12     4     5    1
