@<TRIPOS>MOLECULE
/home/cewinharhar/GITHUB/reincatalyze/data/processed/docking_pred/2023-Apr-25-2248_maxeplen10_maxtrainstep1000_exh16_gamma099_lrac3e-4_lrcr1e-3/3b11ad51370e6150fddf32b3aa65dd5e24197163_ligand_2.pdbqt
 12 12 0 0 0
SMALL
GASTEIGER

@<TRIPOS>ATOM
      1  C          5.6160    1.4580   -0.4380 C.3     1  UNL1        0.1270
      2  C          5.3520    1.9050    0.9410 C.2     1  UNL1        0.3030
      3  O          4.8970    1.0770    1.7760 O.2     1  UNL1       -0.2520
      4  O          5.5920    3.2210    1.3600 O.3     1  UNL1       -0.4810
      5  H          4.8020    3.8040    1.6010 H       1  UNL1        0.2960
      6  C          6.4080    0.1640   -0.4810 C.3     1  UNL1        0.0470
      7  C          7.6400    0.3190   -1.2970 C.2     1  UNL1       -0.0470
      8  C          7.6470   -0.0290   -2.6410 C.2     1  UNL1        0.0040
      9  C          8.8270    0.8000   -0.7760 C.2     1  UNL1        0.0040
     10  C          8.7740    0.0930   -3.4200 C.2     1  UNL1        0.0000
     11  C          9.9550    0.9220   -1.5590 C.2     1  UNL1        0.0000
     12  C          9.9550    0.5730   -2.8900 C.2     1  UNL1        0.0000
@<TRIPOS>BOND
     1    10    12    2
     2    10     8    1
     3    12    11    1
     4     8     7    2
     5    11     9    2
     6     7     9    1
     7     7     6    1
     8     6     1    1
     9     1     2    1
    10     2     4    1
    11     2     3    2
    12     4     5    1
