@<TRIPOS>MOLECULE
/home/cewinharhar/GITHUB/reincatalyze/data/processed/docking_pred/2023-Apr-25-2248_maxeplen10_maxtrainstep1000_exh16_gamma099_lrac3e-4_lrcr1e-3/3b29dc4ebb7ee5049f43ecb42d98a580ffb6b5da_ligand_2.pdbqt
 12 12 0 0 0
SMALL
GASTEIGER

@<TRIPOS>ATOM
      1  C          8.4150   -0.6150   -2.1820 C.3     1  UNL1        0.1270
      2  C          8.4590   -1.8950   -2.9110 C.2     1  UNL1        0.3030
      3  O          9.5710   -2.4640   -3.0830 O.2     1  UNL1       -0.2520
      4  O          7.3040   -2.5050   -3.4220 O.3     1  UNL1       -0.4810
      5  H          7.3320   -2.8860   -4.3580 H       1  UNL1        0.2960
      6  C          7.0270    0.0010   -2.1860 C.3     1  UNL1        0.0470
      7  C          6.4890    0.1110   -0.8050 C.2     1  UNL1       -0.0470
      8  C          6.6040   -0.9460    0.0860 C.2     1  UNL1        0.0040
      9  C          5.8470    1.2440   -0.3410 C.2     1  UNL1        0.0040
     10  C          6.1070   -0.8790    1.3670 C.2     1  UNL1        0.0000
     11  C          5.3500    1.3100    0.9430 C.2     1  UNL1        0.0000
     12  C          5.4670    0.2560    1.8210 C.2     1  UNL1        0.0000
@<TRIPOS>BOND
     1     5     4    1
     2     4     2    1
     3     3     2    2
     4     2     1    1
     5     6     1    1
     6     6     7    1
     7     7     9    2
     8     7     8    1
     9     9    11    1
    10     8    10    2
    11    11    12    2
    12    10    12    1
