MODEL 1
REMARK VINA RESULT:      -7.3      0.000      0.000
REMARK SMILES O=C(O)CCc1ccccc1
REMARK SMILES IDX 4 1 2 2 1 3 3 4 5 6 6 7 7 8 11 9 8 10 10 11 9 12
REMARK H PARENT 3 5
REMARK Flexibility Score: inf
ROOT
ATOM      1  C   UNL     1       8.408  -0.650  -2.143  1.00  0.00     0.127 C 
ENDROOT
BRANCH   1   2
ATOM      2  C   UNL     1       8.427  -1.911  -2.905  1.00  0.00     0.303 C 
ATOM      3  O   UNL     1       9.526  -2.507  -3.075  1.00  0.00    -0.252 OA
BRANCH   2   4
ATOM      4  O   UNL     1       7.264  -2.476  -3.447  1.00  0.00    -0.481 OA
ATOM      5  H   UNL     1       6.867  -2.059  -4.278  1.00  0.00     0.296 HD
ENDBRANCH   2   4
ENDBRANCH   1   2
BRANCH   1   6
ATOM      6  C   UNL     1       7.031  -0.010  -2.127  1.00  0.00     0.047 C 
BRANCH   6   7
ATOM      7  C   UNL     1       6.486   0.046  -0.745  1.00  0.00    -0.047 A 
ATOM      8  C   UNL     1       5.837   1.184  -0.287  1.00  0.00     0.004 A 
ATOM      9  C   UNL     1       6.600  -1.003   0.148  1.00  0.00     0.004 A 
ATOM     10  C   UNL     1       5.332   1.272   0.990  1.00  0.00     0.000 A 
ATOM     11  C   UNL     1       6.093  -0.914   1.426  1.00  0.00     0.000 A 
ATOM     12  C   UNL     1       5.451   0.219   1.874  1.00  0.00     0.000 A 
ENDBRANCH   6   7
ENDBRANCH   1   6
TORSDOF 4
ENDMDL
MODEL 2
REMARK VINA RESULT:      -7.3      0.067      1.422
REMARK SMILES O=C(O)CCc1ccccc1
REMARK SMILES IDX 4 1 2 2 1 3 3 4 5 6 6 7 7 8 11 9 8 10 10 11 9 12
REMARK H PARENT 3 5
REMARK Flexibility Score: inf
ROOT
ATOM      1  C   UNL     1       8.415  -0.615  -2.182  1.00  0.00     0.127 C 
ENDROOT
BRANCH   1   2
ATOM      2  C   UNL     1       8.459  -1.895  -2.911  1.00  0.00     0.303 C 
ATOM      3  O   UNL     1       9.571  -2.464  -3.083  1.00  0.00    -0.252 OA
BRANCH   2   4
ATOM      4  O   UNL     1       7.304  -2.505  -3.422  1.00  0.00    -0.481 OA
ATOM      5  H   UNL     1       7.332  -2.886  -4.358  1.00  0.00     0.296 HD
ENDBRANCH   2   4
ENDBRANCH   1   2
BRANCH   1   6
ATOM      6  C   UNL     1       7.027   0.001  -2.186  1.00  0.00     0.047 C 
BRANCH   6   7
ATOM      7  C   UNL     1       6.489   0.111  -0.805  1.00  0.00    -0.047 A 
ATOM      8  C   UNL     1       6.604  -0.946   0.086  1.00  0.00     0.004 A 
ATOM      9  C   UNL     1       5.847   1.244  -0.341  1.00  0.00     0.004 A 
ATOM     10  C   UNL     1       6.107  -0.879   1.367  1.00  0.00     0.000 A 
ATOM     11  C   UNL     1       5.350   1.310   0.943  1.00  0.00     0.000 A 
ATOM     12  C   UNL     1       5.467   0.256   1.821  1.00  0.00     0.000 A 
ENDBRANCH   6   7
ENDBRANCH   1   6
TORSDOF 4
ENDMDL
MODEL 3
REMARK VINA RESULT:      -6.8      3.394      5.081
REMARK SMILES O=C(O)CCc1ccccc1
REMARK SMILES IDX 4 1 2 2 1 3 3 4 5 6 6 7 7 8 11 9 8 10 10 11 9 12
REMARK H PARENT 3 5
REMARK Flexibility Score: inf
ROOT
ATOM      1  C   UNL     1       5.022   1.799   0.722  1.00  0.00     0.127 C 
ENDROOT
BRANCH   1   2
ATOM      2  C   UNL     1       4.490   1.126   1.920  1.00  0.00     0.303 C 
ATOM      3  O   UNL     1       5.179   0.226   2.474  1.00  0.00    -0.252 OA
BRANCH   2   4
ATOM      4  O   UNL     1       3.242   1.452   2.469  1.00  0.00    -0.481 OA
ATOM      5  H   UNL     1       2.945   2.419   2.454  1.00  0.00     0.296 HD
ENDBRANCH   2   4
ENDBRANCH   1   2
BRANCH   1   6
ATOM      6  C   UNL     1       6.537   1.895   0.743  1.00  0.00     0.047 C 
BRANCH   6   7
ATOM      7  C   UNL     1       7.138   1.085  -0.348  1.00  0.00    -0.047 A 
ATOM      8  C   UNL     1       8.490   1.185  -0.642  1.00  0.00     0.004 A 
ATOM      9  C   UNL     1       6.399   0.211  -1.125  1.00  0.00     0.004 A 
ATOM     10  C   UNL     1       9.074   0.457  -1.653  1.00  0.00     0.000 A 
ATOM     11  C   UNL     1       6.986  -0.518  -2.137  1.00  0.00     0.000 A 
ATOM     12  C   UNL     1       8.328  -0.412  -2.423  1.00  0.00     0.000 A 
ENDBRANCH   6   7
ENDBRANCH   1   6
TORSDOF 4
ENDMDL
MODEL 4
REMARK VINA RESULT:      -6.7      1.948      2.357
REMARK SMILES O=C(O)CCc1ccccc1
REMARK SMILES IDX 4 1 2 2 1 3 3 4 5 6 6 7 7 8 11 9 8 10 10 11 9 12
REMARK H PARENT 3 5
REMARK Flexibility Score: inf
ROOT
ATOM      1  C   UNL     1       8.265   0.105  -2.194  1.00  0.00     0.127 C 
ENDROOT
BRANCH   1   2
ATOM      2  C   UNL     1       9.368   0.323  -1.240  1.00  0.00     0.303 C 
ATOM      3  O   UNL     1       9.445  -0.410  -0.217  1.00  0.00    -0.252 OA
BRANCH   2   4
ATOM      4  O   UNL     1      10.337   1.318  -1.432  1.00  0.00    -0.481 OA
ATOM      5  H   UNL     1      10.191   2.223  -1.007  1.00  0.00     0.296 HD
ENDBRANCH   2   4
ENDBRANCH   1   2
BRANCH   1   6
ATOM      6  C   UNL     1       7.115  -0.668  -1.575  1.00  0.00     0.047 C 
BRANCH   6   7
ATOM      7  C   UNL     1       6.347   0.185  -0.631  1.00  0.00    -0.047 A 
ATOM      8  C   UNL     1       5.857   1.420  -1.031  1.00  0.00     0.004 A 
ATOM      9  C   UNL     1       6.089  -0.189   0.676  1.00  0.00     0.004 A 
ATOM     10  C   UNL     1       5.152   2.237  -0.178  1.00  0.00     0.000 A 
ATOM     11  C   UNL     1       5.382   0.631   1.529  1.00  0.00     0.000 A 
ATOM     12  C   UNL     1       4.901   1.856   1.125  1.00  0.00     0.000 A 
ENDBRANCH   6   7
ENDBRANCH   1   6
TORSDOF 4
ENDMDL
MODEL 5
REMARK VINA RESULT:      -6.6      1.879      2.931
REMARK SMILES O=C(O)CCc1ccccc1
REMARK SMILES IDX 4 1 2 2 1 3 3 4 5 6 6 7 7 8 11 9 8 10 10 11 9 12
REMARK H PARENT 3 5
REMARK Flexibility Score: inf
ROOT
ATOM      1  C   UNL     1       8.185  -1.615   1.147  1.00  0.00     0.127 C 
ENDROOT
BRANCH   1   2
ATOM      2  C   UNL     1       8.503  -2.806   0.340  1.00  0.00     0.303 C 
ATOM      3  O   UNL     1       9.149  -3.750   0.869  1.00  0.00    -0.252 OA
BRANCH   2   4
ATOM      4  O   UNL     1       8.108  -2.928  -1.001  1.00  0.00    -0.481 OA
ATOM      5  H   UNL     1       7.136  -3.117  -1.203  1.00  0.00     0.296 HD
ENDBRANCH   2   4
ENDBRANCH   1   2
BRANCH   1   6
ATOM      6  C   UNL     1       6.699  -1.491   1.428  1.00  0.00     0.047 C 
BRANCH   6   7
ATOM      7  C   UNL     1       6.154  -0.227   0.868  1.00  0.00    -0.047 A 
ATOM      8  C   UNL     1       6.425   0.142  -0.442  1.00  0.00     0.004 A 
ATOM      9  C   UNL     1       5.370   0.642   1.605  1.00  0.00     0.004 A 
ATOM     10  C   UNL     1       5.945   1.310  -0.987  1.00  0.00     0.000 A 
ATOM     11  C   UNL     1       4.890   1.812   1.058  1.00  0.00     0.000 A 
ATOM     12  C   UNL     1       5.164   2.172  -0.242  1.00  0.00     0.000 A 
ENDBRANCH   6   7
ENDBRANCH   1   6
TORSDOF 4
ENDMDL
