@<TRIPOS>MOLECULE
/home/cewinharhar/GITHUB/reincatalyze/data/processed/docking_pred/2023-Apr-25-2248_maxeplen10_maxtrainstep1000_exh16_gamma099_lrac3e-4_lrcr1e-3/3b29dc4ebb7ee5049f43ecb42d98a580ffb6b5da_ligand_2.pdbqt
 12 12 0 0 0
SMALL
GASTEIGER

@<TRIPOS>ATOM
      1  C          8.4080   -0.6500   -2.1430 C.3     1  UNL1        0.1270
      2  C          8.4270   -1.9110   -2.9050 C.2     1  UNL1        0.3030
      3  O          9.5260   -2.5070   -3.0750 O.2     1  UNL1       -0.2520
      4  O          7.2640   -2.4760   -3.4470 O.3     1  UNL1       -0.4810
      5  H          6.8670   -2.0590   -4.2780 H       1  UNL1        0.2960
      6  C          7.0310   -0.0100   -2.1270 C.3     1  UNL1        0.0470
      7  C          6.4860    0.0460   -0.7450 C.2     1  UNL1       -0.0470
      8  C          5.8370    1.1840   -0.2870 C.2     1  UNL1        0.0040
      9  C          6.6000   -1.0030    0.1480 C.2     1  UNL1        0.0040
     10  C          5.3320    1.2720    0.9900 C.2     1  UNL1        0.0000
     11  C          6.0930   -0.9140    1.4260 C.2     1  UNL1        0.0000
     12  C          5.4510    0.2190    1.8740 C.2     1  UNL1        0.0000
@<TRIPOS>BOND
     1     5     4    1
     2     4     2    1
     3     3     2    2
     4     2     1    1
     5     1     6    1
     6     6     7    1
     7     7     8    2
     8     7     9    1
     9     8    10    1
    10     9    11    2
    11    10    12    2
    12    11    12    1
