@<TRIPOS>MOLECULE
/home/cewinharhar/GITHUB/reincatalyze/data/processed/docking_pred/2023-Apr-25-2248_maxeplen10_maxtrainstep1000_exh16_gamma099_lrac3e-4_lrcr1e-3/3b29dc4ebb7ee5049f43ecb42d98a580ffb6b5da_ligand_2.pdbqt
 12 12 0 0 0
SMALL
GASTEIGER

@<TRIPOS>ATOM
      1  C          8.2650    0.1050   -2.1940 C.3     1  UNL1        0.1270
      2  C          9.3680    0.3230   -1.2400 C.2     1  UNL1        0.3030
      3  O          9.4450   -0.4100   -0.2170 O.2     1  UNL1       -0.2520
      4  O         10.3370    1.3180   -1.4320 O.3     1  UNL1       -0.4810
      5  H         10.1910    2.2230   -1.0070 H       1  UNL1        0.2960
      6  C          7.1150   -0.6680   -1.5750 C.3     1  UNL1        0.0470
      7  C          6.3470    0.1850   -0.6310 C.2     1  UNL1       -0.0470
      8  C          5.8570    1.4200   -1.0310 C.2     1  UNL1        0.0040
      9  C          6.0890   -0.1890    0.6760 C.2     1  UNL1        0.0040
     10  C          5.1520    2.2370   -0.1780 C.2     1  UNL1        0.0000
     11  C          5.3820    0.6310    1.5290 C.2     1  UNL1        0.0000
     12  C          4.9010    1.8560    1.1250 C.2     1  UNL1        0.0000
@<TRIPOS>BOND
     1     1     6    1
     2     1     2    1
     3     6     7    1
     4     4     2    1
     5     4     5    1
     6     2     3    2
     7     8     7    2
     8     8    10    1
     9     7     9    1
    10    10    12    2
    11     9    11    2
    12    12    11    1
