@<TRIPOS>MOLECULE
/home/cewinharhar/GITHUB/reincatalyze/data/processed/docking_pred/2023-Apr-25-2248_maxeplen10_maxtrainstep1000_exh16_gamma099_lrac3e-4_lrcr1e-3/3b29dc4ebb7ee5049f43ecb42d98a580ffb6b5da_ligand_2.pdbqt
 12 12 0 0 0
SMALL
GASTEIGER

@<TRIPOS>ATOM
      1  C          5.0220    1.7990    0.7220 C.3     1  UNL1        0.1270
      2  C          4.4900    1.1260    1.9200 C.2     1  UNL1        0.3030
      3  O          5.1790    0.2260    2.4740 O.2     1  UNL1       -0.2520
      4  O          3.2420    1.4520    2.4690 O.3     1  UNL1       -0.4810
      5  H          2.9450    2.4190    2.4540 H       1  UNL1        0.2960
      6  C          6.5370    1.8950    0.7430 C.3     1  UNL1        0.0470
      7  C          7.1380    1.0850   -0.3480 C.2     1  UNL1       -0.0470
      8  C          8.4900    1.1850   -0.6420 C.2     1  UNL1        0.0040
      9  C          6.3990    0.2110   -1.1250 C.2     1  UNL1        0.0040
     10  C          9.0740    0.4570   -1.6530 C.2     1  UNL1        0.0000
     11  C          6.9860   -0.5180   -2.1370 C.2     1  UNL1        0.0000
     12  C          8.3280   -0.4120   -2.4230 C.2     1  UNL1        0.0000
@<TRIPOS>BOND
     1    12    11    2
     2    12    10    1
     3    11     9    1
     4    10     8    2
     5     9     7    2
     6     8     7    1
     7     7     6    1
     8     1     6    1
     9     1     2    1
    10     2     4    1
    11     2     3    2
    12     5     4    1
