@<TRIPOS>MOLECULE
/home/cewinharhar/GITHUB/reincatalyze/data/processed/docking_pred/2023-Apr-25-2248_maxeplen10_maxtrainstep1000_exh16_gamma099_lrac3e-4_lrcr1e-3/3b29dc4ebb7ee5049f43ecb42d98a580ffb6b5da_ligand_2.pdbqt
 12 12 0 0 0
SMALL
GASTEIGER

@<TRIPOS>ATOM
      1  C          8.1850   -1.6150    1.1470 C.3     1  UNL1        0.1270
      2  C          8.5030   -2.8060    0.3400 C.2     1  UNL1        0.3030
      3  O          9.1490   -3.7500    0.8690 O.2     1  UNL1       -0.2520
      4  O          8.1080   -2.9280   -1.0010 O.3     1  UNL1       -0.4810
      5  H          7.1360   -3.1170   -1.2030 H       1  UNL1        0.2960
      6  C          6.6990   -1.4910    1.4280 C.3     1  UNL1        0.0470
      7  C          6.1540   -0.2270    0.8680 C.2     1  UNL1       -0.0470
      8  C          6.4250    0.1420   -0.4420 C.2     1  UNL1        0.0040
      9  C          5.3700    0.6420    1.6050 C.2     1  UNL1        0.0040
     10  C          5.9450    1.3100   -0.9870 C.2     1  UNL1        0.0000
     11  C          4.8900    1.8120    1.0580 C.2     1  UNL1        0.0000
     12  C          5.1640    2.1720   -0.2420 C.2     1  UNL1        0.0000
@<TRIPOS>BOND
     1     5     4    1
     2     4     2    1
     3    10     8    1
     4    10    12    2
     5     8     7    2
     6    12    11    1
     7     2     3    2
     8     2     1    1
     9     7     6    1
    10     7     9    1
    11    11     9    2
    12     1     6    1
