@<TRIPOS>MOLECULE
/home/cewinharhar/GITHUB/reincatalyze/data/processed/docking_pred/2023-Apr-25-2248_maxeplen10_maxtrainstep1000_exh16_gamma099_lrac3e-4_lrcr1e-3/3b98b0574a09314ff34419eb6cee054edaec9098_ligand_2.pdbqt
 12 12 0 0 0
SMALL
GASTEIGER

@<TRIPOS>ATOM
      1  C          8.4120   -0.6450   -2.1450 C.3     1  UNL1        0.1270
      2  C          8.4460   -1.9100   -2.8990 C.2     1  UNL1        0.3030
      3  O          9.5540   -2.4850   -3.0810 O.2     1  UNL1       -0.2520
      4  O          7.2870   -2.5010   -3.4230 O.3     1  UNL1       -0.4810
      5  H          7.1850   -3.5050   -3.3590 H       1  UNL1        0.2960
      6  C          7.0350   -0.0060   -2.1590 C.3     1  UNL1        0.0470
      7  C          6.4850    0.1070   -0.7830 C.2     1  UNL1       -0.0470
      8  C          6.6210   -0.9380    0.1210 C.2     1  UNL1        0.0040
      9  C          5.8120    1.2280   -0.3350 C.2     1  UNL1        0.0040
     10  C          6.1140   -0.8690    1.3980 C.2     1  UNL1        0.0000
     11  C          5.3050    1.2960    0.9450 C.2     1  UNL1        0.0000
     12  C          5.4430    0.2550    1.8350 C.2     1  UNL1        0.0000
@<TRIPOS>BOND
     1     4     5    1
     2     4     2    1
     3     3     2    2
     4     2     1    1
     5     6     1    1
     6     6     7    1
     7     7     9    2
     8     7     8    1
     9     9    11    1
    10     8    10    2
    11    11    12    2
    12    10    12    1
