@<TRIPOS>MOLECULE
/home/cewinharhar/GITHUB/reincatalyze/data/processed/docking_pred/2023-Apr-25-2248_maxeplen10_maxtrainstep1000_exh16_gamma099_lrac3e-4_lrcr1e-3/3b98b0574a09314ff34419eb6cee054edaec9098_ligand_2.pdbqt
 12 12 0 0 0
SMALL
GASTEIGER

@<TRIPOS>ATOM
      1  C          7.4070   -1.5110   -1.9610 C.3     1  UNL1        0.1270
      2  C          8.8010   -1.3880   -2.4230 C.2     1  UNL1        0.3030
      3  O          9.2820   -2.2880   -3.1650 O.2     1  UNL1       -0.2520
      4  O          9.6140   -0.3020   -2.0680 O.3     1  UNL1       -0.4810
      5  H          9.5750    0.5360   -2.6320 H       1  UNL1        0.2960
      6  C          7.3020   -1.5040   -0.4470 C.3     1  UNL1        0.0470
      7  C          6.4840   -0.3560    0.0250 C.2     1  UNL1       -0.0470
      8  C          6.2250    0.7200   -0.8120 C.2     1  UNL1        0.0040
      9  C          5.9520   -0.2890    1.3000 C.2     1  UNL1        0.0040
     10  C          5.4810    1.8030   -0.4020 C.2     1  UNL1        0.0000
     11  C          5.2070    0.7960    1.7090 C.2     1  UNL1        0.0000
     12  C          4.9560    1.8600    0.8730 C.2     1  UNL1        0.0000
@<TRIPOS>BOND
     1     3     2    2
     2     5     4    1
     3     2     4    1
     4     2     1    1
     5     1     6    1
     6     8    10    1
     7     8     7    2
     8     6     7    1
     9    10    12    2
    10     7     9    1
    11    12    11    1
    12     9    11    2
