@<TRIPOS>MOLECULE
/home/cewinharhar/GITHUB/reincatalyze/data/processed/docking_pred/2023-Apr-25-2248_maxeplen10_maxtrainstep1000_exh16_gamma099_lrac3e-4_lrcr1e-3/3b98b0574a09314ff34419eb6cee054edaec9098_ligand_2.pdbqt
 12 12 0 0 0
SMALL
GASTEIGER

@<TRIPOS>ATOM
      1  C          8.3430    0.2200   -2.1330 C.3     1  UNL1        0.1270
      2  C          9.4330    0.3540   -1.1500 C.2     1  UNL1        0.3030
      3  O          9.4550   -0.4170   -0.1520 O.2     1  UNL1       -0.2520
      4  O         10.4490    1.3100   -1.2860 O.3     1  UNL1       -0.4810
      5  H         10.4410    1.9120   -2.0980 H       1  UNL1        0.2960
      6  C          7.1580   -0.5480   -1.5760 C.3     1  UNL1        0.0470
      7  C          6.3630    0.3000   -0.6490 C.2     1  UNL1       -0.0470
      8  C          6.1210   -0.1110    0.6540 C.2     1  UNL1        0.0040
      9  C          5.8210    1.5150   -1.0250 C.2     1  UNL1        0.0040
     10  C          5.3800    0.6450    1.5330 C.2     1  UNL1        0.0000
     11  C          5.0800    2.2720   -0.1430 C.2     1  UNL1        0.0000
     12  C          4.8430    1.8570    1.1480 C.2     1  UNL1        0.0000
@<TRIPOS>BOND
     1     1     6    1
     2     1     2    1
     3     5     4    1
     4     6     7    1
     5     4     2    1
     6     2     3    2
     7     9     7    2
     8     9    11    1
     9     7     8    1
    10    11    12    2
    11     8    10    2
    12    12    10    1
