MODEL 1
REMARK VINA RESULT:      -7.3      0.000      0.000
REMARK SMILES O=C(O)CCc1ccccc1
REMARK SMILES IDX 4 1 2 2 1 3 3 4 5 6 6 7 7 8 11 9 8 10 10 11 9 12
REMARK H PARENT 3 5
REMARK Flexibility Score: inf
ROOT
ATOM      1  C   UNL     1       8.412  -0.645  -2.145  1.00  0.00     0.127 C 
ENDROOT
BRANCH   1   2
ATOM      2  C   UNL     1       8.446  -1.910  -2.899  1.00  0.00     0.303 C 
ATOM      3  O   UNL     1       9.554  -2.485  -3.081  1.00  0.00    -0.252 OA
BRANCH   2   4
ATOM      4  O   UNL     1       7.287  -2.501  -3.423  1.00  0.00    -0.481 OA
ATOM      5  H   UNL     1       7.185  -3.505  -3.359  1.00  0.00     0.296 HD
ENDBRANCH   2   4
ENDBRANCH   1   2
BRANCH   1   6
ATOM      6  C   UNL     1       7.035  -0.006  -2.159  1.00  0.00     0.047 C 
BRANCH   6   7
ATOM      7  C   UNL     1       6.485   0.107  -0.783  1.00  0.00    -0.047 A 
ATOM      8  C   UNL     1       6.621  -0.938   0.121  1.00  0.00     0.004 A 
ATOM      9  C   UNL     1       5.812   1.228  -0.335  1.00  0.00     0.004 A 
ATOM     10  C   UNL     1       6.114  -0.869   1.398  1.00  0.00     0.000 A 
ATOM     11  C   UNL     1       5.305   1.296   0.945  1.00  0.00     0.000 A 
ATOM     12  C   UNL     1       5.443   0.255   1.835  1.00  0.00     0.000 A 
ENDBRANCH   6   7
ENDBRANCH   1   6
TORSDOF 4
ENDMDL
MODEL 2
REMARK VINA RESULT:      -7.2      0.095      1.723
REMARK SMILES O=C(O)CCc1ccccc1
REMARK SMILES IDX 4 1 2 2 1 3 3 4 5 6 6 7 7 8 11 9 8 10 10 11 9 12
REMARK H PARENT 3 5
REMARK Flexibility Score: inf
ROOT
ATOM      1  C   UNL     1       8.375  -0.622  -2.167  1.00  0.00     0.127 C 
ENDROOT
BRANCH   1   2
ATOM      2  C   UNL     1       8.383  -1.897  -2.905  1.00  0.00     0.303 C 
ATOM      3  O   UNL     1       7.285  -2.413  -3.248  1.00  0.00    -0.252 OA
BRANCH   2   4
ATOM      4  O   UNL     1       9.573  -2.558  -3.242  1.00  0.00    -0.481 OA
ATOM      5  H   UNL     1      10.343  -2.013  -3.606  1.00  0.00     0.296 HD
ENDBRANCH   2   4
ENDBRANCH   1   2
BRANCH   1   6
ATOM      6  C   UNL     1       6.996   0.013  -2.134  1.00  0.00     0.047 C 
BRANCH   6   7
ATOM      7  C   UNL     1       6.466   0.064  -0.746  1.00  0.00    -0.047 A 
ATOM      8  C   UNL     1       5.806   1.192  -0.281  1.00  0.00     0.004 A 
ATOM      9  C   UNL     1       6.605  -0.983   0.147  1.00  0.00     0.004 A 
ATOM     10  C   UNL     1       5.314   1.274   1.001  1.00  0.00     0.000 A 
ATOM     11  C   UNL     1       6.111  -0.899   1.431  1.00  0.00     0.000 A 
ATOM     12  C   UNL     1       5.459   0.224   1.885  1.00  0.00     0.000 A 
ENDBRANCH   6   7
ENDBRANCH   1   6
TORSDOF 4
ENDMDL
MODEL 3
REMARK VINA RESULT:      -6.8      3.391      5.085
REMARK SMILES O=C(O)CCc1ccccc1
REMARK SMILES IDX 4 1 2 2 1 3 3 4 5 6 6 7 7 8 11 9 8 10 10 11 9 12
REMARK H PARENT 3 5
REMARK Flexibility Score: inf
ROOT
ATOM      1  C   UNL     1       4.979   1.792   0.705  1.00  0.00     0.127 C 
ENDROOT
BRANCH   1   2
ATOM      2  C   UNL     1       4.470   1.116   1.912  1.00  0.00     0.303 C 
ATOM      3  O   UNL     1       5.169   0.216   2.451  1.00  0.00    -0.252 OA
BRANCH   2   4
ATOM      4  O   UNL     1       3.232   1.441   2.484  1.00  0.00    -0.481 OA
ATOM      5  H   UNL     1       3.220   1.998   3.328  1.00  0.00     0.296 HD
ENDBRANCH   2   4
ENDBRANCH   1   2
BRANCH   1   6
ATOM      6  C   UNL     1       6.491   1.932   0.721  1.00  0.00     0.047 C 
BRANCH   6   7
ATOM      7  C   UNL     1       7.114   1.107  -0.347  1.00  0.00    -0.047 A 
ATOM      8  C   UNL     1       8.466   1.227  -0.636  1.00  0.00     0.004 A 
ATOM      9  C   UNL     1       6.398   0.199  -1.105  1.00  0.00     0.004 A 
ATOM     10  C   UNL     1       9.070   0.485  -1.625  1.00  0.00     0.000 A 
ATOM     11  C   UNL     1       7.004  -0.544  -2.095  1.00  0.00     0.000 A 
ATOM     12  C   UNL     1       8.346  -0.418  -2.377  1.00  0.00     0.000 A 
ENDBRANCH   6   7
ENDBRANCH   1   6
TORSDOF 4
ENDMDL
MODEL 4
REMARK VINA RESULT:      -6.7      1.039      2.020
REMARK SMILES O=C(O)CCc1ccccc1
REMARK SMILES IDX 4 1 2 2 1 3 3 4 5 6 6 7 7 8 11 9 8 10 10 11 9 12
REMARK H PARENT 3 5
REMARK Flexibility Score: inf
ROOT
ATOM      1  C   UNL     1       7.407  -1.511  -1.961  1.00  0.00     0.127 C 
ENDROOT
BRANCH   1   2
ATOM      2  C   UNL     1       8.801  -1.388  -2.423  1.00  0.00     0.303 C 
ATOM      3  O   UNL     1       9.282  -2.288  -3.165  1.00  0.00    -0.252 OA
BRANCH   2   4
ATOM      4  O   UNL     1       9.614  -0.302  -2.068  1.00  0.00    -0.481 OA
ATOM      5  H   UNL     1       9.575   0.536  -2.632  1.00  0.00     0.296 HD
ENDBRANCH   2   4
ENDBRANCH   1   2
BRANCH   1   6
ATOM      6  C   UNL     1       7.302  -1.504  -0.447  1.00  0.00     0.047 C 
BRANCH   6   7
ATOM      7  C   UNL     1       6.484  -0.356   0.025  1.00  0.00    -0.047 A 
ATOM      8  C   UNL     1       6.225   0.720  -0.812  1.00  0.00     0.004 A 
ATOM      9  C   UNL     1       5.952  -0.289   1.300  1.00  0.00     0.004 A 
ATOM     10  C   UNL     1       5.481   1.803  -0.402  1.00  0.00     0.000 A 
ATOM     11  C   UNL     1       5.207   0.796   1.709  1.00  0.00     0.000 A 
ATOM     12  C   UNL     1       4.956   1.860   0.873  1.00  0.00     0.000 A 
ENDBRANCH   6   7
ENDBRANCH   1   6
TORSDOF 4
ENDMDL
MODEL 5
REMARK VINA RESULT:      -6.6      1.976      2.389
REMARK SMILES O=C(O)CCc1ccccc1
REMARK SMILES IDX 4 1 2 2 1 3 3 4 5 6 6 7 7 8 11 9 8 10 10 11 9 12
REMARK H PARENT 3 5
REMARK Flexibility Score: inf
ROOT
ATOM      1  C   UNL     1       8.343   0.220  -2.133  1.00  0.00     0.127 C 
ENDROOT
BRANCH   1   2
ATOM      2  C   UNL     1       9.433   0.354  -1.150  1.00  0.00     0.303 C 
ATOM      3  O   UNL     1       9.455  -0.417  -0.152  1.00  0.00    -0.252 OA
BRANCH   2   4
ATOM      4  O   UNL     1      10.449   1.310  -1.286  1.00  0.00    -0.481 OA
ATOM      5  H   UNL     1      10.441   1.912  -2.098  1.00  0.00     0.296 HD
ENDBRANCH   2   4
ENDBRANCH   1   2
BRANCH   1   6
ATOM      6  C   UNL     1       7.158  -0.548  -1.576  1.00  0.00     0.047 C 
BRANCH   6   7
ATOM      7  C   UNL     1       6.363   0.300  -0.649  1.00  0.00    -0.047 A 
ATOM      8  C   UNL     1       6.121  -0.111   0.654  1.00  0.00     0.004 A 
ATOM      9  C   UNL     1       5.821   1.515  -1.025  1.00  0.00     0.004 A 
ATOM     10  C   UNL     1       5.380   0.645   1.533  1.00  0.00     0.000 A 
ATOM     11  C   UNL     1       5.080   2.272  -0.143  1.00  0.00     0.000 A 
ATOM     12  C   UNL     1       4.843   1.857   1.148  1.00  0.00     0.000 A 
ENDBRANCH   6   7
ENDBRANCH   1   6
TORSDOF 4
ENDMDL
