@<TRIPOS>MOLECULE
/home/cewinharhar/GITHUB/reincatalyze/data/processed/docking_pred/2023-Apr-25-2248_maxeplen10_maxtrainstep1000_exh16_gamma099_lrac3e-4_lrcr1e-3/3b98b0574a09314ff34419eb6cee054edaec9098_ligand_2.pdbqt
 12 12 0 0 0
SMALL
GASTEIGER

@<TRIPOS>ATOM
      1  C          4.9790    1.7920    0.7050 C.3     1  UNL1        0.1270
      2  C          4.4700    1.1160    1.9120 C.2     1  UNL1        0.3030
      3  O          5.1690    0.2160    2.4510 O.2     1  UNL1       -0.2520
      4  O          3.2320    1.4410    2.4840 O.3     1  UNL1       -0.4810
      5  H          3.2200    1.9980    3.3280 H       1  UNL1        0.2960
      6  C          6.4910    1.9320    0.7210 C.3     1  UNL1        0.0470
      7  C          7.1140    1.1070   -0.3470 C.2     1  UNL1       -0.0470
      8  C          8.4660    1.2270   -0.6360 C.2     1  UNL1        0.0040
      9  C          6.3980    0.1990   -1.1050 C.2     1  UNL1        0.0040
     10  C          9.0700    0.4850   -1.6250 C.2     1  UNL1        0.0000
     11  C          7.0040   -0.5440   -2.0950 C.2     1  UNL1        0.0000
     12  C          8.3460   -0.4180   -2.3770 C.2     1  UNL1        0.0000
@<TRIPOS>BOND
     1    12    11    2
     2    12    10    1
     3    11     9    1
     4    10     8    2
     5     9     7    2
     6     8     7    1
     7     7     6    1
     8     1     6    1
     9     1     2    1
    10     2     3    2
    11     2     4    1
    12     4     5    1
