@<TRIPOS>MOLECULE
/home/cewinharhar/GITHUB/reincatalyze/data/processed/docking_pred/2023-Apr-25-2248_maxeplen10_maxtrainstep1000_exh16_gamma099_lrac3e-4_lrcr1e-3/3b98b0574a09314ff34419eb6cee054edaec9098_ligand_2.pdbqt
 12 12 0 0 0
SMALL
GASTEIGER

@<TRIPOS>ATOM
      1  C          8.3750   -0.6220   -2.1670 C.3     1  UNL1        0.1270
      2  C          8.3830   -1.8970   -2.9050 C.2     1  UNL1        0.3030
      3  O          7.2850   -2.4130   -3.2480 O.2     1  UNL1       -0.2520
      4  O          9.5730   -2.5580   -3.2420 O.3     1  UNL1       -0.4810
      5  H         10.3430   -2.0130   -3.6060 H       1  UNL1        0.2960
      6  C          6.9960    0.0130   -2.1340 C.3     1  UNL1        0.0470
      7  C          6.4660    0.0640   -0.7460 C.2     1  UNL1       -0.0470
      8  C          5.8060    1.1920   -0.2810 C.2     1  UNL1        0.0040
      9  C          6.6050   -0.9830    0.1470 C.2     1  UNL1        0.0040
     10  C          5.3140    1.2740    1.0010 C.2     1  UNL1        0.0000
     11  C          6.1110   -0.8990    1.4310 C.2     1  UNL1        0.0000
     12  C          5.4590    0.2240    1.8850 C.2     1  UNL1        0.0000
@<TRIPOS>BOND
     1     5     4    1
     2     3     2    2
     3     4     2    1
     4     2     1    1
     5     1     6    1
     6     6     7    1
     7     7     8    2
     8     7     9    1
     9     8    10    1
    10     9    11    2
    11    10    12    2
    12    11    12    1
