@<TRIPOS>MOLECULE
/home/cewinharhar/GITHUB/reincatalyze/data/processed/docking_pred/2023-Apr-25-2248_maxeplen10_maxtrainstep1000_exh16_gamma099_lrac3e-4_lrcr1e-3/3bf4b9a3f06cfa5433c2fd34b58c3faf64c233d9_ligand_2.pdbqt
 12 12 0 0 0
SMALL
GASTEIGER

@<TRIPOS>ATOM
      1  C          8.1690   -0.9550   -1.8590 C.3     1  UNL1        0.1270
      2  C          8.3490   -2.0200   -2.8620 C.2     1  UNL1        0.3030
      3  O          9.5110   -2.4470   -3.1000 O.2     1  UNL1       -0.2520
      4  O          7.2700   -2.5760   -3.5630 O.3     1  UNL1       -0.4810
      5  H          7.1460   -3.5800   -3.5420 H       1  UNL1        0.2960
      6  C          7.3410   -1.4180   -0.6740 C.3     1  UNL1        0.0470
      7  C          6.5270   -0.3020   -0.1250 C.2     1  UNL1       -0.0470
      8  C          6.0540   -0.3460    1.1790 C.2     1  UNL1        0.0040
      9  C          6.1930    0.8170   -0.8660 C.2     1  UNL1        0.0040
     10  C          5.2890    0.6660    1.7130 C.2     1  UNL1        0.0000
     11  C          5.4280    1.8300   -0.3300 C.2     1  UNL1        0.0000
     12  C          4.9610    1.7780    0.9640 C.2     1  UNL1        0.0000
@<TRIPOS>BOND
     1     4     5    1
     2     4     2    1
     3     3     2    2
     4     2     1    1
     5     1     6    1
     6     9    11    1
     7     9     7    2
     8     6     7    1
     9    11    12    2
    10     7     8    1
    11    12    10    1
    12     8    10    2
