@<TRIPOS>MOLECULE
/home/cewinharhar/GITHUB/reincatalyze/data/processed/docking_pred/2023-Apr-25-2248_maxeplen10_maxtrainstep1000_exh16_gamma099_lrac3e-4_lrcr1e-3/3bf4b9a3f06cfa5433c2fd34b58c3faf64c233d9_ligand_2.pdbqt
 12 12 0 0 0
SMALL
GASTEIGER

@<TRIPOS>ATOM
      1  C          8.3470    0.3020   -2.0300 C.3     1  UNL1        0.1270
      2  C          9.4760    0.4000   -1.0880 C.2     1  UNL1        0.3030
      3  O          9.5200   -0.3840   -0.1020 O.2     1  UNL1       -0.2520
      4  O         10.5060    1.3370   -1.2500 O.3     1  UNL1       -0.4810
      5  H         10.9610    1.4050   -2.1510 H       1  UNL1        0.2960
      6  C          7.2320   -0.5810   -1.4990 C.3     1  UNL1        0.0470
      7  C          6.4080    0.1450   -0.4970 C.2     1  UNL1       -0.0470
      8  C          5.8440    1.3760   -0.8030 C.2     1  UNL1        0.0040
      9  C          6.1700   -0.3460    0.7730 C.2     1  UNL1        0.0040
     10  C          5.0850    2.0770    0.1060 C.2     1  UNL1        0.0000
     11  C          5.4100    0.3580    1.6820 C.2     1  UNL1        0.0000
     12  C          4.8540    1.5790    1.3720 C.2     1  UNL1        0.0000
@<TRIPOS>BOND
     1     5     4    1
     2     1     6    1
     3     1     2    1
     4     6     7    1
     5     4     2    1
     6     2     3    2
     7     8     7    2
     8     8    10    1
     9     7     9    1
    10    10    12    2
    11     9    11    2
    12    12    11    1
