@<TRIPOS>MOLECULE
/home/cewinharhar/GITHUB/reincatalyze/data/processed/docking_pred/2023-Apr-25-2248_maxeplen10_maxtrainstep1000_exh16_gamma099_lrac3e-4_lrcr1e-3/3bf4b9a3f06cfa5433c2fd34b58c3faf64c233d9_ligand_2.pdbqt
 12 12 0 0 0
SMALL
GASTEIGER

@<TRIPOS>ATOM
      1  C          8.3990   -0.6680   -2.1070 C.3     1  UNL1        0.1270
      2  C          8.3980   -1.9180   -2.8880 C.2     1  UNL1        0.3030
      3  O          7.2960   -2.4200   -3.2400 O.2     1  UNL1       -0.2520
      4  O          9.5840   -2.5690   -3.2570 O.3     1  UNL1       -0.4810
      5  H         10.0830   -3.0980   -2.5550 H       1  UNL1        0.2960
      6  C          7.0490    0.0260   -2.1350 C.3     1  UNL1        0.0470
      7  C          6.4800    0.1400   -0.7660 C.2     1  UNL1       -0.0470
      8  C          6.6030   -0.9030    0.1400 C.2     1  UNL1        0.0040
      9  C          5.8020    1.2630   -0.3290 C.2     1  UNL1        0.0040
     10  C          6.0780   -0.8330    1.4100 C.2     1  UNL1        0.0000
     11  C          5.2770    1.3320    0.9440 C.2     1  UNL1        0.0000
     12  C          5.4020    0.2920    1.8370 C.2     1  UNL1        0.0000
@<TRIPOS>BOND
     1     4     2    1
     2     4     5    1
     3     3     2    2
     4     2     1    1
     5     6     1    1
     6     6     7    1
     7     7     9    2
     8     7     8    1
     9     9    11    1
    10     8    10    2
    11    11    12    2
    12    10    12    1
