MODEL 1
REMARK VINA RESULT:      -7.3      0.000      0.000
REMARK SMILES O=C(O)CCc1ccccc1
REMARK SMILES IDX 4 1 2 2 1 3 3 4 5 6 6 7 7 8 11 9 8 10 10 11 9 12
REMARK H PARENT 3 5
REMARK Flexibility Score: inf
ROOT
ATOM      1  C   UNL     1       8.403  -0.676  -2.101  1.00  0.00     0.127 C 
ENDROOT
BRANCH   1   2
ATOM      2  C   UNL     1       8.402  -1.923  -2.886  1.00  0.00     0.303 C 
ATOM      3  O   UNL     1       7.299  -2.423  -3.239  1.00  0.00    -0.252 OA
BRANCH   2   4
ATOM      4  O   UNL     1       9.587  -2.575  -3.257  1.00  0.00    -0.481 OA
ATOM      5  H   UNL     1      10.299  -2.045  -3.741  1.00  0.00     0.296 HD
ENDBRANCH   2   4
ENDBRANCH   1   2
BRANCH   1   6
ATOM      6  C   UNL     1       7.050   0.012  -2.114  1.00  0.00     0.047 C 
BRANCH   6   7
ATOM      7  C   UNL     1       6.479   0.090  -0.744  1.00  0.00    -0.047 A 
ATOM      8  C   UNL     1       5.807   1.228  -0.321  1.00  0.00     0.004 A 
ATOM      9  C   UNL     1       6.591  -0.939   0.173  1.00  0.00     0.004 A 
ATOM     10  C   UNL     1       5.276   1.335   0.944  1.00  0.00     0.000 A 
ATOM     11  C   UNL     1       6.059  -0.830   1.440  1.00  0.00     0.000 A 
ATOM     12  C   UNL     1       5.394   0.303   1.852  1.00  0.00     0.000 A 
ENDBRANCH   6   7
ENDBRANCH   1   6
TORSDOF 4
ENDMDL
MODEL 2
REMARK VINA RESULT:      -7.3      0.029      1.421
REMARK SMILES O=C(O)CCc1ccccc1
REMARK SMILES IDX 4 1 2 2 1 3 3 4 5 6 6 7 7 8 11 9 8 10 10 11 9 12
REMARK H PARENT 3 5
REMARK Flexibility Score: inf
ROOT
ATOM      1  C   UNL     1       8.399  -0.668  -2.107  1.00  0.00     0.127 C 
ENDROOT
BRANCH   1   2
ATOM      2  C   UNL     1       8.398  -1.918  -2.888  1.00  0.00     0.303 C 
ATOM      3  O   UNL     1       7.296  -2.420  -3.240  1.00  0.00    -0.252 OA
BRANCH   2   4
ATOM      4  O   UNL     1       9.584  -2.569  -3.257  1.00  0.00    -0.481 OA
ATOM      5  H   UNL     1      10.083  -3.098  -2.555  1.00  0.00     0.296 HD
ENDBRANCH   2   4
ENDBRANCH   1   2
BRANCH   1   6
ATOM      6  C   UNL     1       7.049   0.026  -2.135  1.00  0.00     0.047 C 
BRANCH   6   7
ATOM      7  C   UNL     1       6.480   0.140  -0.766  1.00  0.00    -0.047 A 
ATOM      8  C   UNL     1       6.603  -0.903   0.140  1.00  0.00     0.004 A 
ATOM      9  C   UNL     1       5.802   1.263  -0.329  1.00  0.00     0.004 A 
ATOM     10  C   UNL     1       6.078  -0.833   1.410  1.00  0.00     0.000 A 
ATOM     11  C   UNL     1       5.277   1.332   0.944  1.00  0.00     0.000 A 
ATOM     12  C   UNL     1       5.402   0.292   1.837  1.00  0.00     0.000 A 
ENDBRANCH   6   7
ENDBRANCH   1   6
TORSDOF 4
ENDMDL
MODEL 3
REMARK VINA RESULT:      -7.2      0.670      1.888
REMARK SMILES O=C(O)CCc1ccccc1
REMARK SMILES IDX 4 1 2 2 1 3 3 4 5 6 6 7 7 8 11 9 8 10 10 11 9 12
REMARK H PARENT 3 5
REMARK Flexibility Score: inf
ROOT
ATOM      1  C   UNL     1       8.169  -0.955  -1.859  1.00  0.00     0.127 C 
ENDROOT
BRANCH   1   2
ATOM      2  C   UNL     1       8.349  -2.020  -2.862  1.00  0.00     0.303 C 
ATOM      3  O   UNL     1       9.511  -2.447  -3.100  1.00  0.00    -0.252 OA
BRANCH   2   4
ATOM      4  O   UNL     1       7.270  -2.576  -3.563  1.00  0.00    -0.481 OA
ATOM      5  H   UNL     1       7.146  -3.580  -3.542  1.00  0.00     0.296 HD
ENDBRANCH   2   4
ENDBRANCH   1   2
BRANCH   1   6
ATOM      6  C   UNL     1       7.341  -1.418  -0.674  1.00  0.00     0.047 C 
BRANCH   6   7
ATOM      7  C   UNL     1       6.527  -0.302  -0.125  1.00  0.00    -0.047 A 
ATOM      8  C   UNL     1       6.054  -0.346   1.179  1.00  0.00     0.004 A 
ATOM      9  C   UNL     1       6.193   0.817  -0.866  1.00  0.00     0.004 A 
ATOM     10  C   UNL     1       5.289   0.666   1.713  1.00  0.00     0.000 A 
ATOM     11  C   UNL     1       5.428   1.830  -0.330  1.00  0.00     0.000 A 
ATOM     12  C   UNL     1       4.961   1.778   0.964  1.00  0.00     0.000 A 
ENDBRANCH   6   7
ENDBRANCH   1   6
TORSDOF 4
ENDMDL
MODEL 4
REMARK VINA RESULT:      -6.8      3.324      5.174
REMARK SMILES O=C(O)CCc1ccccc1
REMARK SMILES IDX 4 1 2 2 1 3 3 4 5 6 6 7 7 8 11 9 8 10 10 11 9 12
REMARK H PARENT 3 5
REMARK Flexibility Score: inf
ROOT
ATOM      1  C   UNL     1       5.013   1.779   0.740  1.00  0.00     0.127 C 
ENDROOT
BRANCH   1   2
ATOM      2  C   UNL     1       4.473   1.102   1.932  1.00  0.00     0.303 C 
ATOM      3  O   UNL     1       5.150   0.187   2.476  1.00  0.00    -0.252 OA
BRANCH   2   4
ATOM      4  O   UNL     1       3.230   1.441   2.486  1.00  0.00    -0.481 OA
ATOM      5  H   UNL     1       2.986   1.063   3.392  1.00  0.00     0.296 HD
ENDBRANCH   2   4
ENDBRANCH   1   2
BRANCH   1   6
ATOM      6  C   UNL     1       6.527   1.891   0.780  1.00  0.00     0.047 C 
BRANCH   6   7
ATOM      7  C   UNL     1       7.147   1.110  -0.322  1.00  0.00    -0.047 A 
ATOM      8  C   UNL     1       6.397   0.205  -1.058  1.00  0.00     0.004 A 
ATOM      9  C   UNL     1       8.482   1.230  -0.665  1.00  0.00     0.004 A 
ATOM     10  C   UNL     1       6.944  -0.540  -2.078  1.00  0.00     0.000 A 
ATOM     11  C   UNL     1       9.029   0.483  -1.686  1.00  0.00     0.000 A 
ATOM     12  C   UNL     1       8.278  -0.414  -2.411  1.00  0.00     0.000 A 
ENDBRANCH   6   7
ENDBRANCH   1   6
TORSDOF 4
ENDMDL
MODEL 5
REMARK VINA RESULT:      -6.6      1.974      2.280
REMARK SMILES O=C(O)CCc1ccccc1
REMARK SMILES IDX 4 1 2 2 1 3 3 4 5 6 6 7 7 8 11 9 8 10 10 11 9 12
REMARK H PARENT 3 5
REMARK Flexibility Score: inf
ROOT
ATOM      1  C   UNL     1       8.347   0.302  -2.030  1.00  0.00     0.127 C 
ENDROOT
BRANCH   1   2
ATOM      2  C   UNL     1       9.476   0.400  -1.088  1.00  0.00     0.303 C 
ATOM      3  O   UNL     1       9.520  -0.384  -0.102  1.00  0.00    -0.252 OA
BRANCH   2   4
ATOM      4  O   UNL     1      10.506   1.337  -1.250  1.00  0.00    -0.481 OA
ATOM      5  H   UNL     1      10.961   1.405  -2.151  1.00  0.00     0.296 HD
ENDBRANCH   2   4
ENDBRANCH   1   2
BRANCH   1   6
ATOM      6  C   UNL     1       7.232  -0.581  -1.499  1.00  0.00     0.047 C 
BRANCH   6   7
ATOM      7  C   UNL     1       6.408   0.145  -0.497  1.00  0.00    -0.047 A 
ATOM      8  C   UNL     1       5.844   1.376  -0.803  1.00  0.00     0.004 A 
ATOM      9  C   UNL     1       6.170  -0.346   0.773  1.00  0.00     0.004 A 
ATOM     10  C   UNL     1       5.085   2.077   0.106  1.00  0.00     0.000 A 
ATOM     11  C   UNL     1       5.410   0.358   1.682  1.00  0.00     0.000 A 
ATOM     12  C   UNL     1       4.854   1.579   1.372  1.00  0.00     0.000 A 
ENDBRANCH   6   7
ENDBRANCH   1   6
TORSDOF 4
ENDMDL
