@<TRIPOS>MOLECULE
/home/cewinharhar/GITHUB/reincatalyze/data/processed/docking_pred/2023-Apr-25-2248_maxeplen10_maxtrainstep1000_exh16_gamma099_lrac3e-4_lrcr1e-3/3bf4b9a3f06cfa5433c2fd34b58c3faf64c233d9_ligand_2.pdbqt
 12 12 0 0 0
SMALL
GASTEIGER

@<TRIPOS>ATOM
      1  C          5.0130    1.7790    0.7400 C.3     1  UNL1        0.1270
      2  C          4.4730    1.1020    1.9320 C.2     1  UNL1        0.3030
      3  O          5.1500    0.1870    2.4760 O.2     1  UNL1       -0.2520
      4  O          3.2300    1.4410    2.4860 O.3     1  UNL1       -0.4810
      5  H          2.9860    1.0630    3.3920 H       1  UNL1        0.2960
      6  C          6.5270    1.8910    0.7800 C.3     1  UNL1        0.0470
      7  C          7.1470    1.1100   -0.3220 C.2     1  UNL1       -0.0470
      8  C          6.3970    0.2050   -1.0580 C.2     1  UNL1        0.0040
      9  C          8.4820    1.2300   -0.6650 C.2     1  UNL1        0.0040
     10  C          6.9440   -0.5400   -2.0780 C.2     1  UNL1        0.0000
     11  C          9.0290    0.4830   -1.6860 C.2     1  UNL1        0.0000
     12  C          8.2780   -0.4140   -2.4110 C.2     1  UNL1        0.0000
@<TRIPOS>BOND
     1    12    10    2
     2    12    11    1
     3    10     8    1
     4    11     9    2
     5     8     7    2
     6     9     7    1
     7     7     6    1
     8     1     6    1
     9     1     2    1
    10     2     3    2
    11     2     4    1
    12     4     5    1
