@<TRIPOS>MOLECULE
/home/cewinharhar/GITHUB/reincatalyze/data/processed/docking_pred/2023-Apr-25-2248_maxeplen10_maxtrainstep1000_exh16_gamma099_lrac3e-4_lrcr1e-3/3bf4b9a3f06cfa5433c2fd34b58c3faf64c233d9_ligand_2.pdbqt
 12 12 0 0 0
SMALL
GASTEIGER

@<TRIPOS>ATOM
      1  C          8.4030   -0.6760   -2.1010 C.3     1  UNL1        0.1270
      2  C          8.4020   -1.9230   -2.8860 C.2     1  UNL1        0.3030
      3  O          7.2990   -2.4230   -3.2390 O.2     1  UNL1       -0.2520
      4  O          9.5870   -2.5750   -3.2570 O.3     1  UNL1       -0.4810
      5  H         10.2990   -2.0450   -3.7410 H       1  UNL1        0.2960
      6  C          7.0500    0.0120   -2.1140 C.3     1  UNL1        0.0470
      7  C          6.4790    0.0900   -0.7440 C.2     1  UNL1       -0.0470
      8  C          5.8070    1.2280   -0.3210 C.2     1  UNL1        0.0040
      9  C          6.5910   -0.9390    0.1730 C.2     1  UNL1        0.0040
     10  C          5.2760    1.3350    0.9440 C.2     1  UNL1        0.0000
     11  C          6.0590   -0.8300    1.4400 C.2     1  UNL1        0.0000
     12  C          5.3940    0.3030    1.8520 C.2     1  UNL1        0.0000
@<TRIPOS>BOND
     1     5     4    1
     2     4     2    1
     3     3     2    2
     4     2     1    1
     5     6     1    1
     6     6     7    1
     7     7     8    2
     8     7     9    1
     9     8    10    1
    10     9    11    2
    11    10    12    2
    12    11    12    1
