MODEL 1
REMARK VINA RESULT:      -7.3      0.000      0.000
REMARK SMILES O=C(O)CCc1ccccc1
REMARK SMILES IDX 4 1 2 2 1 3 3 4 5 6 6 7 7 8 11 9 8 10 10 11 9 12
REMARK H PARENT 3 5
REMARK Flexibility Score: inf
ROOT
ATOM      1  C   UNL     1       8.398  -0.743  -2.033  1.00  0.00     0.127 C 
ENDROOT
BRANCH   1   2
ATOM      2  C   UNL     1       8.426  -1.952  -2.876  1.00  0.00     0.303 C 
ATOM      3  O   UNL     1       9.530  -2.522  -3.091  1.00  0.00    -0.252 OA
BRANCH   2   4
ATOM      4  O   UNL     1       7.265  -2.493  -3.447  1.00  0.00    -0.481 OA
ATOM      5  H   UNL     1       6.706  -1.907  -4.052  1.00  0.00     0.296 HD
ENDBRANCH   2   4
ENDBRANCH   1   2
BRANCH   1   6
ATOM      6  C   UNL     1       7.046  -0.054  -2.064  1.00  0.00     0.047 C 
BRANCH   6   7
ATOM      7  C   UNL     1       6.465   0.041  -0.699  1.00  0.00    -0.047 A 
ATOM      8  C   UNL     1       5.800   1.188  -0.291  1.00  0.00     0.004 A 
ATOM      9  C   UNL     1       6.560  -0.981   0.227  1.00  0.00     0.004 A 
ATOM     10  C   UNL     1       5.261   1.311   0.969  1.00  0.00     0.000 A 
ATOM     11  C   UNL     1       6.020  -0.857   1.489  1.00  0.00     0.000 A 
ATOM     12  C   UNL     1       5.362   0.285   1.887  1.00  0.00     0.000 A 
ENDBRANCH   6   7
ENDBRANCH   1   6
TORSDOF 4
ENDMDL
MODEL 2
REMARK VINA RESULT:      -7.3      0.105      1.723
REMARK SMILES O=C(O)CCc1ccccc1
REMARK SMILES IDX 4 1 2 2 1 3 3 4 5 6 6 7 7 8 11 9 8 10 10 11 9 12
REMARK H PARENT 3 5
REMARK Flexibility Score: inf
ROOT
ATOM      1  C   UNL     1       8.384  -0.683  -2.092  1.00  0.00     0.127 C 
ENDROOT
BRANCH   1   2
ATOM      2  C   UNL     1       8.386  -1.928  -2.881  1.00  0.00     0.303 C 
ATOM      3  O   UNL     1       7.285  -2.430  -3.236  1.00  0.00    -0.252 OA
BRANCH   2   4
ATOM      4  O   UNL     1       9.573  -2.576  -3.252  1.00  0.00    -0.481 OA
ATOM      5  H   UNL     1      10.452  -2.205  -2.917  1.00  0.00     0.296 HD
ENDBRANCH   2   4
ENDBRANCH   1   2
BRANCH   1   6
ATOM      6  C   UNL     1       7.029   0.001  -2.105  1.00  0.00     0.047 C 
BRANCH   6   7
ATOM      7  C   UNL     1       6.473   0.107  -0.730  1.00  0.00    -0.047 A 
ATOM      8  C   UNL     1       6.590  -0.948   0.163  1.00  0.00     0.004 A 
ATOM      9  C   UNL     1       5.812   1.233  -0.275  1.00  0.00     0.004 A 
ATOM     10  C   UNL     1       6.077  -0.886   1.439  1.00  0.00     0.000 A 
ATOM     11  C   UNL     1       5.299   1.294   1.003  1.00  0.00     0.000 A 
ATOM     12  C   UNL     1       5.418   0.243   1.883  1.00  0.00     0.000 A 
ENDBRANCH   6   7
ENDBRANCH   1   6
TORSDOF 4
ENDMDL
MODEL 3
REMARK VINA RESULT:      -6.8      3.407      5.099
REMARK SMILES O=C(O)CCc1ccccc1
REMARK SMILES IDX 4 1 2 2 1 3 3 4 5 6 6 7 7 8 11 9 8 10 10 11 9 12
REMARK H PARENT 3 5
REMARK Flexibility Score: inf
ROOT
ATOM      1  C   UNL     1       4.981   1.781   0.716  1.00  0.00     0.127 C 
ENDROOT
BRANCH   1   2
ATOM      2  C   UNL     1       4.461   1.117   1.924  1.00  0.00     0.303 C 
ATOM      3  O   UNL     1       5.151   0.214   2.472  1.00  0.00    -0.252 OA
BRANCH   2   4
ATOM      4  O   UNL     1       3.223   1.455   2.490  1.00  0.00    -0.481 OA
ATOM      5  H   UNL     1       2.406   0.925   2.217  1.00  0.00     0.296 HD
ENDBRANCH   2   4
ENDBRANCH   1   2
BRANCH   1   6
ATOM      6  C   UNL     1       6.494   1.913   0.740  1.00  0.00     0.047 C 
BRANCH   6   7
ATOM      7  C   UNL     1       7.117   1.097  -0.333  1.00  0.00    -0.047 A 
ATOM      8  C   UNL     1       8.466   1.229  -0.631  1.00  0.00     0.004 A 
ATOM      9  C   UNL     1       6.404   0.184  -1.089  1.00  0.00     0.004 A 
ATOM     10  C   UNL     1       9.070   0.495  -1.626  1.00  0.00     0.000 A 
ATOM     11  C   UNL     1       7.011  -0.551  -2.085  1.00  0.00     0.000 A 
ATOM     12  C   UNL     1       8.349  -0.412  -2.375  1.00  0.00     0.000 A 
ENDBRANCH   6   7
ENDBRANCH   1   6
TORSDOF 4
ENDMDL
MODEL 4
REMARK VINA RESULT:      -6.6      1.963      2.923
REMARK SMILES O=C(O)CCc1ccccc1
REMARK SMILES IDX 4 1 2 2 1 3 3 4 5 6 6 7 7 8 11 9 8 10 10 11 9 12
REMARK H PARENT 3 5
REMARK Flexibility Score: inf
ROOT
ATOM      1  C   UNL     1       8.295  -1.671   1.156  1.00  0.00     0.127 C 
ENDROOT
BRANCH   1   2
ATOM      2  C   UNL     1       8.689  -2.908   0.459  1.00  0.00     0.303 C 
ATOM      3  O   UNL     1       9.415  -3.745   1.061  1.00  0.00    -0.252 OA
BRANCH   2   4
ATOM      4  O   UNL     1       8.282  -3.190  -0.853  1.00  0.00    -0.481 OA
ATOM      5  H   UNL     1       7.967  -4.125  -1.072  1.00  0.00     0.296 HD
ENDBRANCH   2   4
ENDBRANCH   1   2
BRANCH   1   6
ATOM      6  C   UNL     1       6.798  -1.600   1.397  1.00  0.00     0.047 C 
BRANCH   6   7
ATOM      7  C   UNL     1       6.232  -0.334   0.863  1.00  0.00    -0.047 A 
ATOM      8  C   UNL     1       6.488   0.061  -0.442  1.00  0.00     0.004 A 
ATOM      9  C   UNL     1       5.442   0.512   1.621  1.00  0.00     0.004 A 
ATOM     10  C   UNL     1       5.988   1.233  -0.963  1.00  0.00     0.000 A 
ATOM     11  C   UNL     1       4.942   1.685   1.098  1.00  0.00     0.000 A 
ATOM     12  C   UNL     1       5.202   2.070  -0.197  1.00  0.00     0.000 A 
ENDBRANCH   6   7
ENDBRANCH   1   6
TORSDOF 4
ENDMDL
MODEL 5
REMARK VINA RESULT:      -6.5      3.783      5.025
REMARK SMILES O=C(O)CCc1ccccc1
REMARK SMILES IDX 4 1 2 2 1 3 3 4 5 6 6 7 7 8 11 9 8 10 10 11 9 12
REMARK H PARENT 3 5
REMARK Flexibility Score: inf
ROOT
ATOM      1  C   UNL     1       5.404   2.966   0.156  1.00  0.00     0.127 C 
ENDROOT
BRANCH   1   2
ATOM      2  C   UNL     1       6.258   3.911   0.897  1.00  0.00     0.303 C 
ATOM      3  O   UNL     1       6.915   4.774   0.255  1.00  0.00    -0.252 OA
BRANCH   2   4
ATOM      4  O   UNL     1       6.363   3.885   2.295  1.00  0.00    -0.481 OA
ATOM      5  H   UNL     1       6.202   4.742   2.808  1.00  0.00     0.296 HD
ENDBRANCH   2   4
ENDBRANCH   1   2
BRANCH   1   6
ATOM      6  C   UNL     1       5.239   1.646   0.888  1.00  0.00     0.047 C 
BRANCH   6   7
ATOM      7  C   UNL     1       6.020   0.569   0.227  1.00  0.00    -0.047 A 
ATOM      8  C   UNL     1       6.315   0.637  -1.127  1.00  0.00     0.004 A 
ATOM      9  C   UNL     1       6.481  -0.546   0.905  1.00  0.00     0.004 A 
ATOM     10  C   UNL     1       7.028  -0.349  -1.770  1.00  0.00     0.000 A 
ATOM     11  C   UNL     1       7.194  -1.532   0.259  1.00  0.00     0.000 A 
ATOM     12  C   UNL     1       7.482  -1.458  -1.085  1.00  0.00     0.000 A 
ENDBRANCH   6   7
ENDBRANCH   1   6
TORSDOF 4
ENDMDL
