@<TRIPOS>MOLECULE
/home/cewinharhar/GITHUB/reincatalyze/data/processed/docking_pred/2023-Apr-25-2248_maxeplen10_maxtrainstep1000_exh16_gamma099_lrac3e-4_lrcr1e-3/3c93f0ab1d0179ecce707f4524a6ff468bff7290_ligand_2.pdbqt
 12 12 0 0 0
SMALL
GASTEIGER

@<TRIPOS>ATOM
      1  C          5.4040    2.9660    0.1560 C.3     1  UNL1        0.1270
      2  C          6.2580    3.9110    0.8970 C.2     1  UNL1        0.3030
      3  O          6.9150    4.7740    0.2550 O.2     1  UNL1       -0.2520
      4  O          6.3630    3.8850    2.2950 O.3     1  UNL1       -0.4810
      5  H          6.2020    4.7420    2.8080 H       1  UNL1        0.2960
      6  C          5.2390    1.6460    0.8880 C.3     1  UNL1        0.0470
      7  C          6.0200    0.5690    0.2270 C.2     1  UNL1       -0.0470
      8  C          6.3150    0.6370   -1.1270 C.2     1  UNL1        0.0040
      9  C          6.4810   -0.5460    0.9050 C.2     1  UNL1        0.0040
     10  C          7.0280   -0.3490   -1.7700 C.2     1  UNL1        0.0000
     11  C          7.1940   -1.5320    0.2590 C.2     1  UNL1        0.0000
     12  C          7.4820   -1.4580   -1.0850 C.2     1  UNL1        0.0000
@<TRIPOS>BOND
     1    10     8    1
     2    10    12    2
     3     8     7    2
     4    12    11    1
     5     1     6    1
     6     1     2    1
     7     7     6    1
     8     7     9    1
     9     3     2    2
    10    11     9    2
    11     2     4    1
    12     4     5    1
