@<TRIPOS>MOLECULE
/home/cewinharhar/GITHUB/reincatalyze/data/processed/docking_pred/2023-Apr-25-2248_maxeplen10_maxtrainstep1000_exh16_gamma099_lrac3e-4_lrcr1e-3/3c93f0ab1d0179ecce707f4524a6ff468bff7290_ligand_2.pdbqt
 12 12 0 0 0
SMALL
GASTEIGER

@<TRIPOS>ATOM
      1  C          8.3840   -0.6830   -2.0920 C.3     1  UNL1        0.1270
      2  C          8.3860   -1.9280   -2.8810 C.2     1  UNL1        0.3030
      3  O          7.2850   -2.4300   -3.2360 O.2     1  UNL1       -0.2520
      4  O          9.5730   -2.5760   -3.2520 O.3     1  UNL1       -0.4810
      5  H         10.4520   -2.2050   -2.9170 H       1  UNL1        0.2960
      6  C          7.0290    0.0010   -2.1050 C.3     1  UNL1        0.0470
      7  C          6.4730    0.1070   -0.7300 C.2     1  UNL1       -0.0470
      8  C          6.5900   -0.9480    0.1630 C.2     1  UNL1        0.0040
      9  C          5.8120    1.2330   -0.2750 C.2     1  UNL1        0.0040
     10  C          6.0770   -0.8860    1.4390 C.2     1  UNL1        0.0000
     11  C          5.2990    1.2940    1.0030 C.2     1  UNL1        0.0000
     12  C          5.4180    0.2430    1.8830 C.2     1  UNL1        0.0000
@<TRIPOS>BOND
     1     4     5    1
     2     4     2    1
     3     3     2    2
     4     2     1    1
     5     6     1    1
     6     6     7    1
     7     7     9    2
     8     7     8    1
     9     9    11    1
    10     8    10    2
    11    11    12    2
    12    10    12    1
