@<TRIPOS>MOLECULE
/home/cewinharhar/GITHUB/reincatalyze/data/processed/docking_pred/2023-Apr-25-2248_maxeplen10_maxtrainstep1000_exh16_gamma099_lrac3e-4_lrcr1e-3/3c93f0ab1d0179ecce707f4524a6ff468bff7290_ligand_2.pdbqt
 12 12 0 0 0
SMALL
GASTEIGER

@<TRIPOS>ATOM
      1  C          4.9810    1.7810    0.7160 C.3     1  UNL1        0.1270
      2  C          4.4610    1.1170    1.9240 C.2     1  UNL1        0.3030
      3  O          5.1510    0.2140    2.4720 O.2     1  UNL1       -0.2520
      4  O          3.2230    1.4550    2.4900 O.3     1  UNL1       -0.4810
      5  H          2.4060    0.9250    2.2170 H       1  UNL1        0.2960
      6  C          6.4940    1.9130    0.7400 C.3     1  UNL1        0.0470
      7  C          7.1170    1.0970   -0.3330 C.2     1  UNL1       -0.0470
      8  C          8.4660    1.2290   -0.6310 C.2     1  UNL1        0.0040
      9  C          6.4040    0.1840   -1.0890 C.2     1  UNL1        0.0040
     10  C          9.0700    0.4950   -1.6260 C.2     1  UNL1        0.0000
     11  C          7.0110   -0.5510   -2.0850 C.2     1  UNL1        0.0000
     12  C          8.3490   -0.4120   -2.3750 C.2     1  UNL1        0.0000
@<TRIPOS>BOND
     1    12    11    2
     2    12    10    1
     3    11     9    1
     4    10     8    2
     5     9     7    2
     6     8     7    1
     7     7     6    1
     8     1     6    1
     9     1     2    1
    10     2     3    2
    11     2     4    1
    12     5     4    1
