@<TRIPOS>MOLECULE
/home/cewinharhar/GITHUB/reincatalyze/data/processed/docking_pred/2023-Apr-25-2248_maxeplen10_maxtrainstep1000_exh16_gamma099_lrac3e-4_lrcr1e-3/3c93f0ab1d0179ecce707f4524a6ff468bff7290_ligand_2.pdbqt
 12 12 0 0 0
SMALL
GASTEIGER

@<TRIPOS>ATOM
      1  C          8.3980   -0.7430   -2.0330 C.3     1  UNL1        0.1270
      2  C          8.4260   -1.9520   -2.8760 C.2     1  UNL1        0.3030
      3  O          9.5300   -2.5220   -3.0910 O.2     1  UNL1       -0.2520
      4  O          7.2650   -2.4930   -3.4470 O.3     1  UNL1       -0.4810
      5  H          6.7060   -1.9070   -4.0520 H       1  UNL1        0.2960
      6  C          7.0460   -0.0540   -2.0640 C.3     1  UNL1        0.0470
      7  C          6.4650    0.0410   -0.6990 C.2     1  UNL1       -0.0470
      8  C          5.8000    1.1880   -0.2910 C.2     1  UNL1        0.0040
      9  C          6.5600   -0.9810    0.2270 C.2     1  UNL1        0.0040
     10  C          5.2610    1.3110    0.9690 C.2     1  UNL1        0.0000
     11  C          6.0200   -0.8570    1.4890 C.2     1  UNL1        0.0000
     12  C          5.3620    0.2850    1.8870 C.2     1  UNL1        0.0000
@<TRIPOS>BOND
     1     5     4    1
     2     4     2    1
     3     3     2    2
     4     2     1    1
     5     6     1    1
     6     6     7    1
     7     7     8    2
     8     7     9    1
     9     8    10    1
    10     9    11    2
    11    10    12    2
    12    11    12    1
