@<TRIPOS>MOLECULE
/home/cewinharhar/GITHUB/reincatalyze/data/processed/docking_pred/2023-Apr-25-2248_maxeplen10_maxtrainstep1000_exh16_gamma099_lrac3e-4_lrcr1e-3/3c93f0ab1d0179ecce707f4524a6ff468bff7290_ligand_2.pdbqt
 12 12 0 0 0
SMALL
GASTEIGER

@<TRIPOS>ATOM
      1  C          8.2950   -1.6710    1.1560 C.3     1  UNL1        0.1270
      2  C          8.6890   -2.9080    0.4590 C.2     1  UNL1        0.3030
      3  O          9.4150   -3.7450    1.0610 O.2     1  UNL1       -0.2520
      4  O          8.2820   -3.1900   -0.8530 O.3     1  UNL1       -0.4810
      5  H          7.9670   -4.1250   -1.0720 H       1  UNL1        0.2960
      6  C          6.7980   -1.6000    1.3970 C.3     1  UNL1        0.0470
      7  C          6.2320   -0.3340    0.8630 C.2     1  UNL1       -0.0470
      8  C          6.4880    0.0610   -0.4420 C.2     1  UNL1        0.0040
      9  C          5.4420    0.5120    1.6210 C.2     1  UNL1        0.0040
     10  C          5.9880    1.2330   -0.9630 C.2     1  UNL1        0.0000
     11  C          4.9420    1.6850    1.0980 C.2     1  UNL1        0.0000
     12  C          5.2020    2.0700   -0.1970 C.2     1  UNL1        0.0000
@<TRIPOS>BOND
     1     5     4    1
     2    10     8    1
     3    10    12    2
     4     4     2    1
     5     8     7    2
     6    12    11    1
     7     2     3    2
     8     2     1    1
     9     7     6    1
    10     7     9    1
    11    11     9    2
    12     1     6    1
