@<TRIPOS>MOLECULE
/home/cewinharhar/GITHUB/reincatalyze/data/processed/docking_pred/2023-Apr-25-2248_maxeplen10_maxtrainstep1000_exh16_gamma099_lrac3e-4_lrcr1e-3/3dd20a82ca316ee4e9168eadca9f8684e5881f32_ligand_2.pdbqt
 12 12 0 0 0
SMALL
GASTEIGER

@<TRIPOS>ATOM
      1  C          8.4120   -0.6810   -2.0730 C.3     1  UNL1        0.1270
      2  C          8.4090   -1.9180   -2.8750 C.2     1  UNL1        0.3030
      3  O          7.3060   -2.4210   -3.2220 O.2     1  UNL1       -0.2520
      4  O          9.5940   -2.5570   -3.2680 O.3     1  UNL1       -0.4810
      5  H          9.5910   -3.5630   -3.3670 H       1  UNL1        0.2960
      6  C          7.0730    0.0340   -2.1170 C.3     1  UNL1        0.0470
      7  C          6.4880    0.1530   -0.7560 C.2     1  UNL1       -0.0470
      8  C          6.6060   -0.8830    0.1590 C.2     1  UNL1        0.0040
      9  C          5.7990    1.2750   -0.3340 C.2     1  UNL1        0.0040
     10  C          6.0670   -0.8070    1.4220 C.2     1  UNL1        0.0000
     11  C          5.2590    1.3500    0.9320 C.2     1  UNL1        0.0000
     12  C          5.3800    0.3170    1.8340 C.2     1  UNL1        0.0000
@<TRIPOS>BOND
     1     5     4    1
     2     4     2    1
     3     3     2    2
     4     2     1    1
     5     6     1    1
     6     6     7    1
     7     7     9    2
     8     7     8    1
     9     9    11    1
    10     8    10    2
    11    11    12    2
    12    10    12    1
