@<TRIPOS>MOLECULE
/home/cewinharhar/GITHUB/reincatalyze/data/processed/docking_pred/2023-Apr-25-2248_maxeplen10_maxtrainstep1000_exh16_gamma099_lrac3e-4_lrcr1e-3/3dd20a82ca316ee4e9168eadca9f8684e5881f32_ligand_2.pdbqt
 12 12 0 0 0
SMALL
GASTEIGER

@<TRIPOS>ATOM
      1  C          8.4060   -0.6390   -2.1320 C.3     1  UNL1        0.1270
      2  C          8.4330   -1.8970   -2.8980 C.2     1  UNL1        0.3030
      3  O          9.5380   -2.4740   -3.0900 O.2     1  UNL1       -0.2520
      4  O          7.2700   -2.4790   -3.4220 O.3     1  UNL1       -0.4810
      5  H          6.3880   -2.0010   -3.2890 H       1  UNL1        0.2960
      6  C          7.0250   -0.0100   -2.1100 C.3     1  UNL1        0.0470
      7  C          6.4860    0.0430   -0.7260 C.2     1  UNL1       -0.0470
      8  C          5.8400    1.1800   -0.2610 C.2     1  UNL1        0.0040
      9  C          6.6020   -1.0090    0.1630 C.2     1  UNL1        0.0040
     10  C          5.3390    1.2640    1.0180 C.2     1  UNL1        0.0000
     11  C          6.1000   -0.9240    1.4440 C.2     1  UNL1        0.0000
     12  C          5.4620    0.2080    1.8990 C.2     1  UNL1        0.0000
@<TRIPOS>BOND
     1     4     5    1
     2     4     2    1
     3     3     2    2
     4     2     1    1
     5     1     6    1
     6     6     7    1
     7     7     8    2
     8     7     9    1
     9     8    10    1
    10     9    11    2
    11    10    12    2
    12    11    12    1
