@<TRIPOS>MOLECULE
/home/cewinharhar/GITHUB/reincatalyze/data/processed/docking_pred/2023-Apr-25-2248_maxeplen10_maxtrainstep1000_exh16_gamma099_lrac3e-4_lrcr1e-3/3dd20a82ca316ee4e9168eadca9f8684e5881f32_ligand_2.pdbqt
 12 12 0 0 0
SMALL
GASTEIGER

@<TRIPOS>ATOM
      1  C          5.5480    2.9620   -0.0020 C.3     1  UNL1        0.1270
      2  C          6.3210    3.9190    0.8100 C.2     1  UNL1        0.3030
      3  O          7.0400    4.7750    0.2270 O.2     1  UNL1       -0.2520
      4  O          6.2820    3.9130    2.2120 O.3     1  UNL1       -0.4810
      5  H          7.1560    3.9430    2.7190 H       1  UNL1        0.2960
      6  C          4.8720    1.9020    0.8500 C.3     1  UNL1        0.0470
      7  C          5.6860    0.6600    0.9020 C.2     1  UNL1       -0.0470
      8  C          5.7730   -0.0810    2.0720 C.2     1  UNL1        0.0040
      9  C          6.3980    0.1860   -0.1850 C.2     1  UNL1        0.0040
     10  C          6.5260   -1.2290    2.1550 C.2     1  UNL1        0.0000
     11  C          7.1530   -0.9640   -0.1000 C.2     1  UNL1        0.0000
     12  C          7.2340   -1.6940    1.0650 C.2     1  UNL1        0.0000
@<TRIPOS>BOND
     1     9    11    1
     2     9     7    2
     3    11    12    2
     4     1     2    1
     5     1     6    1
     6     3     2    2
     7     2     4    1
     8     6     7    1
     9     7     8    1
    10    12    10    1
    11     8    10    2
    12     4     5    1
