@<TRIPOS>MOLECULE
/home/cewinharhar/GITHUB/reincatalyze/data/processed/docking_pred/2023-Apr-25-2248_maxeplen10_maxtrainstep1000_exh16_gamma099_lrac3e-4_lrcr1e-3/3dd20a82ca316ee4e9168eadca9f8684e5881f32_ligand_2.pdbqt
 12 12 0 0 0
SMALL
GASTEIGER

@<TRIPOS>ATOM
      1  C          8.3260    0.1870   -2.1630 C.3     1  UNL1        0.1270
      2  C          9.4390    0.3840   -1.2170 C.2     1  UNL1        0.3030
      3  O          9.5070   -0.3480   -0.1910 O.2     1  UNL1       -0.2520
      4  O         10.4280    1.3570   -1.4170 O.3     1  UNL1       -0.4810
      5  H         11.2810    1.2980   -0.8780 H       1  UNL1        0.2960
      6  C          7.1880   -0.6120   -1.5530 C.3     1  UNL1        0.0470
      7  C          6.3920    0.2240   -0.6170 C.2     1  UNL1       -0.0470
      8  C          6.1460   -0.2040    0.6800 C.2     1  UNL1        0.0040
      9  C          5.8540    1.4450   -0.9780 C.2     1  UNL1        0.0040
     10  C          5.4040    0.5420    1.5660 C.2     1  UNL1        0.0000
     11  C          5.1110    2.1910   -0.0880 C.2     1  UNL1        0.0000
     12  C          4.8700    1.7590    1.1960 C.2     1  UNL1        0.0000
@<TRIPOS>BOND
     1     1     6    1
     2     1     2    1
     3     6     7    1
     4     4     2    1
     5     4     5    1
     6     2     3    2
     7     9     7    2
     8     9    11    1
     9     7     8    1
    10    11    12    2
    11     8    10    2
    12    12    10    1
