@<TRIPOS>MOLECULE
/home/cewinharhar/GITHUB/reincatalyze/data/processed/docking_pred/2023-Apr-25-2248_maxeplen10_maxtrainstep1000_exh16_gamma099_lrac3e-4_lrcr1e-3/3dd20a82ca316ee4e9168eadca9f8684e5881f32_ligand_2.pdbqt
 12 12 0 0 0
SMALL
GASTEIGER

@<TRIPOS>ATOM
      1  C          5.0290    1.7260    0.7260 C.3     1  UNL1        0.1270
      2  C          4.4690    1.0830    1.9280 C.2     1  UNL1        0.3030
      3  O          5.1220    0.1620    2.4900 O.2     1  UNL1       -0.2520
      4  O          3.2340    1.4620    2.4720 O.3     1  UNL1       -0.4810
      5  H          2.6410    2.0840    1.9380 H       1  UNL1        0.2960
      6  C          6.5440    1.8240    0.7800 C.3     1  UNL1        0.0470
      7  C          7.1670    1.0470   -0.3230 C.2     1  UNL1       -0.0470
      8  C          6.4410    0.0840   -1.0090 C.2     1  UNL1        0.0040
      9  C          8.4810    1.2260   -0.7150 C.2     1  UNL1        0.0040
     10  C          6.9920   -0.6590   -2.0270 C.2     1  UNL1        0.0000
     11  C          9.0320    0.4810   -1.7350 C.2     1  UNL1        0.0000
     12  C          8.3060   -0.4740   -2.4100 C.2     1  UNL1        0.0000
@<TRIPOS>BOND
     1    12    10    2
     2    12    11    1
     3    10     8    1
     4    11     9    2
     5     8     7    2
     6     9     7    1
     7     7     6    1
     8     1     6    1
     9     1     2    1
    10     2     4    1
    11     2     3    2
    12     5     4    1
