@<TRIPOS>MOLECULE
/home/cewinharhar/GITHUB/reincatalyze/data/processed/docking_pred/2023-Apr-25-2248_maxeplen10_maxtrainstep1000_exh16_gamma099_lrac3e-4_lrcr1e-3/3e742204aaadd08b2af2eabe2bac092cf241077d_ligand_2.pdbqt
 12 12 0 0 0
SMALL
GASTEIGER

@<TRIPOS>ATOM
      1  C          8.4060   -0.6430   -2.1530 C.3     1  UNL1        0.1270
      2  C          8.3990   -1.9120   -2.9020 C.2     1  UNL1        0.3030
      3  O          7.2950   -2.4160   -3.2410 O.2     1  UNL1       -0.2520
      4  O          9.5810   -2.5790   -3.2540 O.3     1  UNL1       -0.4810
      5  H         10.4480   -2.0590   -3.2550 H       1  UNL1        0.2960
      6  C          7.0430    0.0240   -2.1400 C.3     1  UNL1        0.0470
      7  C          6.4900    0.0820   -0.7620 C.2     1  UNL1       -0.0470
      8  C          5.8080    1.2060   -0.3190 C.2     1  UNL1        0.0040
      9  C          6.6290   -0.9530    0.1440 C.2     1  UNL1        0.0040
     10  C          5.2940    1.2950    0.9540 C.2     1  UNL1        0.0000
     11  C          6.1140   -0.8630    1.4190 C.2     1  UNL1        0.0000
     12  C          5.4390    0.2560    1.8510 C.2     1  UNL1        0.0000
@<TRIPOS>BOND
     1     5     4    1
     2     4     2    1
     3     3     2    2
     4     2     1    1
     5     1     6    1
     6     6     7    1
     7     7     8    2
     8     7     9    1
     9     8    10    1
    10     9    11    2
    11    10    12    2
    12    11    12    1
