@<TRIPOS>MOLECULE
/home/cewinharhar/GITHUB/reincatalyze/data/processed/docking_pred/2023-Apr-25-2248_maxeplen10_maxtrainstep1000_exh16_gamma099_lrac3e-4_lrcr1e-3/3e742204aaadd08b2af2eabe2bac092cf241077d_ligand_2.pdbqt
 12 12 0 0 0
SMALL
GASTEIGER

@<TRIPOS>ATOM
      1  C          8.2760    0.2690   -2.1650 C.3     1  UNL1        0.1270
      2  C          9.4030    0.3800   -1.2230 C.2     1  UNL1        0.3030
      3  O          9.4530   -0.4000   -0.2330 O.2     1  UNL1       -0.2520
      4  O         10.4260    1.3250   -1.3890 O.3     1  UNL1       -0.4810
      5  H         10.2060    2.2010   -1.8430 H       1  UNL1        0.2960
      6  C          7.1310   -0.5510   -1.5970 C.3     1  UNL1        0.0470
      7  C          6.3450    0.2420   -0.6150 C.2     1  UNL1       -0.0470
      8  C          5.8150    1.4750   -0.9650 C.2     1  UNL1        0.0040
      9  C          6.1100   -0.1890    0.6780 C.2     1  UNL1        0.0040
     10  C          5.0920    2.2370   -0.0760 C.2     1  UNL1        0.0000
     11  C          5.3850    0.5750    1.5660 C.2     1  UNL1        0.0000
     12  C          4.8630    1.7990    1.2130 C.2     1  UNL1        0.0000
@<TRIPOS>BOND
     1     1     6    1
     2     1     2    1
     3     5     4    1
     4     6     7    1
     5     4     2    1
     6     2     3    2
     7     8     7    2
     8     8    10    1
     9     7     9    1
    10    10    12    2
    11     9    11    2
    12    12    11    1
