@<TRIPOS>MOLECULE
/home/cewinharhar/GITHUB/reincatalyze/data/processed/docking_pred/2023-Apr-25-2248_maxeplen10_maxtrainstep1000_exh16_gamma099_lrac3e-4_lrcr1e-3/3e742204aaadd08b2af2eabe2bac092cf241077d_ligand_2.pdbqt
 12 12 0 0 0
SMALL
GASTEIGER

@<TRIPOS>ATOM
      1  C          8.4060   -0.6330   -2.1740 C.3     1  UNL1        0.1270
      2  C          8.4530   -1.9070   -2.9140 C.2     1  UNL1        0.3030
      3  O          9.5640   -2.4780   -3.0810 O.2     1  UNL1       -0.2520
      4  O          7.3000   -2.5090   -3.4390 O.3     1  UNL1       -0.4810
      5  H          6.9040   -2.1350   -4.2910 H       1  UNL1        0.2960
      6  C          7.0180   -0.0190   -2.1750 C.3     1  UNL1        0.0470
      7  C          6.4830    0.0900   -0.7930 C.2     1  UNL1       -0.0470
      8  C          6.6060   -0.9650    0.0990 C.2     1  UNL1        0.0040
      9  C          5.8360    1.2210   -0.3280 C.2     1  UNL1        0.0040
     10  C          6.1120   -0.8990    1.3820 C.2     1  UNL1        0.0000
     11  C          5.3420    1.2860    0.9570 C.2     1  UNL1        0.0000
     12  C          5.4670    0.2340    1.8360 C.2     1  UNL1        0.0000
@<TRIPOS>BOND
     1     5     4    1
     2     4     2    1
     3     3     2    2
     4     2     1    1
     5     6     1    1
     6     6     7    1
     7     7     9    2
     8     7     8    1
     9     9    11    1
    10     8    10    2
    11    11    12    2
    12    10    12    1
