MODEL 1
REMARK VINA RESULT:      -7.4      0.000      0.000
REMARK SMILES O=C(O)CCc1ccccc1
REMARK SMILES IDX 4 1 2 2 1 3 3 4 5 6 6 7 7 8 11 9 8 10 10 11 9 12
REMARK H PARENT 3 5
REMARK Flexibility Score: inf
ROOT
ATOM      1  C   UNL     1       8.406  -0.633  -2.174  1.00  0.00     0.127 C 
ENDROOT
BRANCH   1   2
ATOM      2  C   UNL     1       8.453  -1.907  -2.914  1.00  0.00     0.303 C 
ATOM      3  O   UNL     1       9.564  -2.478  -3.081  1.00  0.00    -0.252 OA
BRANCH   2   4
ATOM      4  O   UNL     1       7.300  -2.509  -3.439  1.00  0.00    -0.481 OA
ATOM      5  H   UNL     1       6.904  -2.135  -4.291  1.00  0.00     0.296 HD
ENDBRANCH   2   4
ENDBRANCH   1   2
BRANCH   1   6
ATOM      6  C   UNL     1       7.018  -0.019  -2.175  1.00  0.00     0.047 C 
BRANCH   6   7
ATOM      7  C   UNL     1       6.483   0.090  -0.793  1.00  0.00    -0.047 A 
ATOM      8  C   UNL     1       6.606  -0.965   0.099  1.00  0.00     0.004 A 
ATOM      9  C   UNL     1       5.836   1.221  -0.328  1.00  0.00     0.004 A 
ATOM     10  C   UNL     1       6.112  -0.899   1.382  1.00  0.00     0.000 A 
ATOM     11  C   UNL     1       5.342   1.286   0.957  1.00  0.00     0.000 A 
ATOM     12  C   UNL     1       5.467   0.234   1.836  1.00  0.00     0.000 A 
ENDBRANCH   6   7
ENDBRANCH   1   6
TORSDOF 4
ENDMDL
MODEL 2
REMARK VINA RESULT:      -7.3      0.099      1.722
REMARK SMILES O=C(O)CCc1ccccc1
REMARK SMILES IDX 4 1 2 2 1 3 3 4 5 6 6 7 7 8 11 9 8 10 10 11 9 12
REMARK H PARENT 3 5
REMARK Flexibility Score: inf
ROOT
ATOM      1  C   UNL     1       8.406  -0.643  -2.153  1.00  0.00     0.127 C 
ENDROOT
BRANCH   1   2
ATOM      2  C   UNL     1       8.399  -1.912  -2.902  1.00  0.00     0.303 C 
ATOM      3  O   UNL     1       7.295  -2.416  -3.241  1.00  0.00    -0.252 OA
BRANCH   2   4
ATOM      4  O   UNL     1       9.581  -2.579  -3.254  1.00  0.00    -0.481 OA
ATOM      5  H   UNL     1      10.448  -2.059  -3.255  1.00  0.00     0.296 HD
ENDBRANCH   2   4
ENDBRANCH   1   2
BRANCH   1   6
ATOM      6  C   UNL     1       7.043   0.024  -2.140  1.00  0.00     0.047 C 
BRANCH   6   7
ATOM      7  C   UNL     1       6.490   0.082  -0.762  1.00  0.00    -0.047 A 
ATOM      8  C   UNL     1       5.808   1.206  -0.319  1.00  0.00     0.004 A 
ATOM      9  C   UNL     1       6.629  -0.953   0.144  1.00  0.00     0.004 A 
ATOM     10  C   UNL     1       5.294   1.295   0.954  1.00  0.00     0.000 A 
ATOM     11  C   UNL     1       6.114  -0.863   1.419  1.00  0.00     0.000 A 
ATOM     12  C   UNL     1       5.439   0.256   1.851  1.00  0.00     0.000 A 
ENDBRANCH   6   7
ENDBRANCH   1   6
TORSDOF 4
ENDMDL
MODEL 3
REMARK VINA RESULT:      -6.9      3.403      5.077
REMARK SMILES O=C(O)CCc1ccccc1
REMARK SMILES IDX 4 1 2 2 1 3 3 4 5 6 6 7 7 8 11 9 8 10 10 11 9 12
REMARK H PARENT 3 5
REMARK Flexibility Score: inf
ROOT
ATOM      1  C   UNL     1       5.024   1.773   0.723  1.00  0.00     0.127 C 
ENDROOT
BRANCH   1   2
ATOM      2  C   UNL     1       4.478   1.109   1.920  1.00  0.00     0.303 C 
ATOM      3  O   UNL     1       5.148   0.193   2.471  1.00  0.00    -0.252 OA
BRANCH   2   4
ATOM      4  O   UNL     1       3.237   1.460   2.470  1.00  0.00    -0.481 OA
ATOM      5  H   UNL     1       2.973   2.436   2.482  1.00  0.00     0.296 HD
ENDBRANCH   2   4
ENDBRANCH   1   2
BRANCH   1   6
ATOM      6  C   UNL     1       6.538   1.883   0.768  1.00  0.00     0.047 C 
BRANCH   6   7
ATOM      7  C   UNL     1       7.162   1.101  -0.331  1.00  0.00    -0.047 A 
ATOM      8  C   UNL     1       6.408   0.208  -1.080  1.00  0.00     0.004 A 
ATOM      9  C   UNL     1       8.501   1.207  -0.658  1.00  0.00     0.004 A 
ATOM     10  C   UNL     1       6.959  -0.538  -2.097  1.00  0.00     0.000 A 
ATOM     11  C   UNL     1       9.050   0.459  -1.677  1.00  0.00     0.000 A 
ATOM     12  C   UNL     1       8.297  -0.426  -2.415  1.00  0.00     0.000 A 
ENDBRANCH   6   7
ENDBRANCH   1   6
TORSDOF 4
ENDMDL
MODEL 4
REMARK VINA RESULT:      -6.7      1.956      2.689
REMARK SMILES O=C(O)CCc1ccccc1
REMARK SMILES IDX 4 1 2 2 1 3 3 4 5 6 6 7 7 8 11 9 8 10 10 11 9 12
REMARK H PARENT 3 5
REMARK Flexibility Score: inf
ROOT
ATOM      1  C   UNL     1       8.276   0.269  -2.165  1.00  0.00     0.127 C 
ENDROOT
BRANCH   1   2
ATOM      2  C   UNL     1       9.403   0.380  -1.223  1.00  0.00     0.303 C 
ATOM      3  O   UNL     1       9.453  -0.400  -0.233  1.00  0.00    -0.252 OA
BRANCH   2   4
ATOM      4  O   UNL     1      10.426   1.325  -1.389  1.00  0.00    -0.481 OA
ATOM      5  H   UNL     1      10.206   2.201  -1.843  1.00  0.00     0.296 HD
ENDBRANCH   2   4
ENDBRANCH   1   2
BRANCH   1   6
ATOM      6  C   UNL     1       7.131  -0.551  -1.597  1.00  0.00     0.047 C 
BRANCH   6   7
ATOM      7  C   UNL     1       6.345   0.242  -0.615  1.00  0.00    -0.047 A 
ATOM      8  C   UNL     1       5.815   1.475  -0.965  1.00  0.00     0.004 A 
ATOM      9  C   UNL     1       6.110  -0.189   0.678  1.00  0.00     0.004 A 
ATOM     10  C   UNL     1       5.092   2.237  -0.076  1.00  0.00     0.000 A 
ATOM     11  C   UNL     1       5.385   0.575   1.566  1.00  0.00     0.000 A 
ATOM     12  C   UNL     1       4.863   1.799   1.213  1.00  0.00     0.000 A 
ENDBRANCH   6   7
ENDBRANCH   1   6
TORSDOF 4
ENDMDL
MODEL 5
REMARK VINA RESULT:      -6.7      1.886      2.864
REMARK SMILES O=C(O)CCc1ccccc1
REMARK SMILES IDX 4 1 2 2 1 3 3 4 5 6 6 7 7 8 11 9 8 10 10 11 9 12
REMARK H PARENT 3 5
REMARK Flexibility Score: inf
ROOT
ATOM      1  C   UNL     1       8.173  -1.677   1.138  1.00  0.00     0.127 C 
ENDROOT
BRANCH   1   2
ATOM      2  C   UNL     1       8.522  -2.855   0.325  1.00  0.00     0.303 C 
ATOM      3  O   UNL     1       9.210  -3.776   0.844  1.00  0.00    -0.252 OA
BRANCH   2   4
ATOM      4  O   UNL     1       8.113  -2.991  -1.010  1.00  0.00    -0.481 OA
ATOM      5  H   UNL     1       7.469  -3.733  -1.245  1.00  0.00     0.296 HD
ENDBRANCH   2   4
ENDBRANCH   1   2
BRANCH   1   6
ATOM      6  C   UNL     1       6.678  -1.566   1.377  1.00  0.00     0.047 C 
BRANCH   6   7
ATOM      7  C   UNL     1       6.148  -0.282   0.849  1.00  0.00    -0.047 A 
ATOM      8  C   UNL     1       6.413   0.111  -0.455  1.00  0.00     0.004 A 
ATOM      9  C   UNL     1       5.385   0.583   1.612  1.00  0.00     0.004 A 
ATOM     10  C   UNL     1       5.945   1.298  -0.970  1.00  0.00     0.000 A 
ATOM     11  C   UNL     1       4.917   1.772   1.095  1.00  0.00     0.000 A 
ATOM     12  C   UNL     1       5.185   2.155  -0.199  1.00  0.00     0.000 A 
ENDBRANCH   6   7
ENDBRANCH   1   6
TORSDOF 4
ENDMDL
