@<TRIPOS>MOLECULE
/home/cewinharhar/GITHUB/reincatalyze/data/processed/docking_pred/2023-Apr-25-2248_maxeplen10_maxtrainstep1000_exh16_gamma099_lrac3e-4_lrcr1e-3/3e742204aaadd08b2af2eabe2bac092cf241077d_ligand_2.pdbqt
 12 12 0 0 0
SMALL
GASTEIGER

@<TRIPOS>ATOM
      1  C          5.0240    1.7730    0.7230 C.3     1  UNL1        0.1270
      2  C          4.4780    1.1090    1.9200 C.2     1  UNL1        0.3030
      3  O          5.1480    0.1930    2.4710 O.2     1  UNL1       -0.2520
      4  O          3.2370    1.4600    2.4700 O.3     1  UNL1       -0.4810
      5  H          2.9730    2.4360    2.4820 H       1  UNL1        0.2960
      6  C          6.5380    1.8830    0.7680 C.3     1  UNL1        0.0470
      7  C          7.1620    1.1010   -0.3310 C.2     1  UNL1       -0.0470
      8  C          6.4080    0.2080   -1.0800 C.2     1  UNL1        0.0040
      9  C          8.5010    1.2070   -0.6580 C.2     1  UNL1        0.0040
     10  C          6.9590   -0.5380   -2.0970 C.2     1  UNL1        0.0000
     11  C          9.0500    0.4590   -1.6770 C.2     1  UNL1        0.0000
     12  C          8.2970   -0.4260   -2.4150 C.2     1  UNL1        0.0000
@<TRIPOS>BOND
     1    12    10    2
     2    12    11    1
     3    10     8    1
     4    11     9    2
     5     8     7    2
     6     9     7    1
     7     7     6    1
     8     1     6    1
     9     1     2    1
    10     2     4    1
    11     2     3    2
    12     4     5    1
