@<TRIPOS>MOLECULE
/home/cewinharhar/GITHUB/reincatalyze/data/processed/docking_pred/2023-Apr-25-2248_maxeplen10_maxtrainstep1000_exh16_gamma099_lrac3e-4_lrcr1e-3/3e742204aaadd08b2af2eabe2bac092cf241077d_ligand_2.pdbqt
 12 12 0 0 0
SMALL
GASTEIGER

@<TRIPOS>ATOM
      1  C          8.1730   -1.6770    1.1380 C.3     1  UNL1        0.1270
      2  C          8.5220   -2.8550    0.3250 C.2     1  UNL1        0.3030
      3  O          9.2100   -3.7760    0.8440 O.2     1  UNL1       -0.2520
      4  O          8.1130   -2.9910   -1.0100 O.3     1  UNL1       -0.4810
      5  H          7.4690   -3.7330   -1.2450 H       1  UNL1        0.2960
      6  C          6.6780   -1.5660    1.3770 C.3     1  UNL1        0.0470
      7  C          6.1480   -0.2820    0.8490 C.2     1  UNL1       -0.0470
      8  C          6.4130    0.1110   -0.4550 C.2     1  UNL1        0.0040
      9  C          5.3850    0.5830    1.6120 C.2     1  UNL1        0.0040
     10  C          5.9450    1.2980   -0.9700 C.2     1  UNL1        0.0000
     11  C          4.9170    1.7720    1.0950 C.2     1  UNL1        0.0000
     12  C          5.1850    2.1550   -0.1990 C.2     1  UNL1        0.0000
@<TRIPOS>BOND
     1     5     4    1
     2     4     2    1
     3    10     8    1
     4    10    12    2
     5     8     7    2
     6    12    11    1
     7     2     3    2
     8     2     1    1
     9     7     6    1
    10     7     9    1
    11    11     9    2
    12     1     6    1
