@<TRIPOS>MOLECULE
/home/cewinharhar/GITHUB/reincatalyze/data/processed/docking_pred/2023-Apr-25-2248_maxeplen10_maxtrainstep1000_exh16_gamma099_lrac3e-4_lrcr1e-3/3ef00b253c4480de2280c2f95d83164b82996574_ligand_2.pdbqt
 12 12 0 0 0
SMALL
GASTEIGER

@<TRIPOS>ATOM
      1  C          8.1840    0.1950   -2.1220 C.3     1  UNL1        0.1270
      2  C          9.3330    0.3830   -1.2180 C.2     1  UNL1        0.3030
      3  O          9.4580   -0.3790   -0.2210 O.2     1  UNL1       -0.2520
      4  O         10.2950    1.3810   -1.4280 O.3     1  UNL1       -0.4810
      5  H         11.2430    1.2110   -1.1230 H       1  UNL1        0.2960
      6  C          7.0930   -0.6540   -1.4940 C.3     1  UNL1        0.0470
      7  C          6.3370    0.1200   -0.4750 C.2     1  UNL1       -0.0470
      8  C          6.1390   -0.3930    0.7990 C.2     1  UNL1        0.0040
      9  C          5.7890    1.3630   -0.7330 C.2     1  UNL1        0.0040
     10  C          5.4350    0.2930    1.7620 C.2     1  UNL1        0.0000
     11  C          5.0840    2.0490    0.2330 C.2     1  UNL1        0.0000
     12  C          4.8920    1.5330    1.4940 C.2     1  UNL1        0.0000
@<TRIPOS>BOND
     1     1     6    1
     2     1     2    1
     3     6     7    1
     4     4     2    1
     5     4     5    1
     6     2     3    2
     7     9     7    2
     8     9    11    1
     9     7     8    1
    10    11    12    2
    11     8    10    2
    12    12    10    1
