@<TRIPOS>MOLECULE
/home/cewinharhar/GITHUB/reincatalyze/data/processed/docking_pred/2023-Apr-25-2248_maxeplen10_maxtrainstep1000_exh16_gamma099_lrac3e-4_lrcr1e-3/3ef00b253c4480de2280c2f95d83164b82996574_ligand_2.pdbqt
 12 12 0 0 0
SMALL
GASTEIGER

@<TRIPOS>ATOM
      1  C          8.3230   -1.7430    1.1820 C.3     1  UNL1        0.1270
      2  C          8.7200   -2.9760    0.4780 C.2     1  UNL1        0.3030
      3  O          9.4750   -3.7980    1.0630 O.2     1  UNL1       -0.2520
      4  O          8.2840   -3.2680   -0.8220 O.3     1  UNL1       -0.4810
      5  H          8.1010   -2.5000   -1.4550 H       1  UNL1        0.2960
      6  C          6.8250   -1.6720    1.4160 C.3     1  UNL1        0.0470
      7  C          6.2610   -0.4070    0.8790 C.2     1  UNL1       -0.0470
      8  C          6.4990   -0.0270   -0.4340 C.2     1  UNL1        0.0040
      9  C          5.4910    0.4520    1.6420 C.2     1  UNL1        0.0040
     10  C          5.9990    1.1430   -0.9580 C.2     1  UNL1        0.0000
     11  C          4.9910    1.6240    1.1160 C.2     1  UNL1        0.0000
     12  C          5.2330    1.9950   -0.1880 C.2     1  UNL1        0.0000
@<TRIPOS>BOND
     1     5     4    1
     2    10     8    1
     3    10    12    2
     4     4     2    1
     5     8     7    2
     6    12    11    1
     7     2     3    2
     8     2     1    1
     9     7     6    1
    10     7     9    1
    11    11     9    2
    12     1     6    1
