MODEL 1
REMARK VINA RESULT:      -7.3      0.000      0.000
REMARK SMILES O=C(O)CCc1ccccc1
REMARK SMILES IDX 4 1 2 2 1 3 3 4 5 6 6 7 7 8 11 9 8 10 10 11 9 12
REMARK H PARENT 3 5
REMARK Flexibility Score: inf
ROOT
ATOM      1  C   UNL     1       8.403  -0.658  -2.102  1.00  0.00     0.127 C 
ENDROOT
BRANCH   1   2
ATOM      2  C   UNL     1       8.441  -1.905  -2.886  1.00  0.00     0.303 C 
ATOM      3  O   UNL     1       9.549  -2.473  -3.080  1.00  0.00    -0.252 OA
BRANCH   2   4
ATOM      4  O   UNL     1       7.283  -2.484  -3.425  1.00  0.00    -0.481 OA
ATOM      5  H   UNL     1       7.185  -3.490  -3.391  1.00  0.00     0.296 HD
ENDBRANCH   2   4
ENDBRANCH   1   2
BRANCH   1   6
ATOM      6  C   UNL     1       7.029  -0.012  -2.116  1.00  0.00     0.047 C 
BRANCH   6   7
ATOM      7  C   UNL     1       6.478   0.099  -0.740  1.00  0.00    -0.047 A 
ATOM      8  C   UNL     1       6.595  -0.955   0.156  1.00  0.00     0.004 A 
ATOM      9  C   UNL     1       5.823   1.228  -0.284  1.00  0.00     0.004 A 
ATOM     10  C   UNL     1       6.087  -0.888   1.433  1.00  0.00     0.000 A 
ATOM     11  C   UNL     1       5.315   1.294   0.995  1.00  0.00     0.000 A 
ATOM     12  C   UNL     1       5.433   0.244   1.878  1.00  0.00     0.000 A 
ENDBRANCH   6   7
ENDBRANCH   1   6
TORSDOF 4
ENDMDL
MODEL 2
REMARK VINA RESULT:      -7.2      0.077      1.423
REMARK SMILES O=C(O)CCc1ccccc1
REMARK SMILES IDX 4 1 2 2 1 3 3 4 5 6 6 7 7 8 11 9 8 10 10 11 9 12
REMARK H PARENT 3 5
REMARK Flexibility Score: inf
ROOT
ATOM      1  C   UNL     1       8.419  -0.583  -2.221  1.00  0.00     0.127 C 
ENDROOT
BRANCH   1   2
ATOM      2  C   UNL     1       8.453  -1.881  -2.918  1.00  0.00     0.303 C 
ATOM      3  O   UNL     1       9.558  -2.471  -3.059  1.00  0.00    -0.252 OA
BRANCH   2   4
ATOM      4  O   UNL     1       7.296  -2.486  -3.429  1.00  0.00    -0.481 OA
ATOM      5  H   UNL     1       6.415  -1.999  -3.337  1.00  0.00     0.296 HD
ENDBRANCH   2   4
ENDBRANCH   1   2
BRANCH   1   6
ATOM      6  C   UNL     1       7.024   0.016  -2.192  1.00  0.00     0.047 C 
BRANCH   6   7
ATOM      7  C   UNL     1       6.501   0.079  -0.803  1.00  0.00    -0.047 A 
ATOM      8  C   UNL     1       5.877   1.226  -0.333  1.00  0.00     0.004 A 
ATOM      9  C   UNL     1       6.610  -0.974   0.087  1.00  0.00     0.004 A 
ATOM     10  C   UNL     1       5.391   1.320   0.951  1.00  0.00     0.000 A 
ATOM     11  C   UNL     1       6.123  -0.879   1.373  1.00  0.00     0.000 A 
ATOM     12  C   UNL     1       5.507   0.263   1.832  1.00  0.00     0.000 A 
ENDBRANCH   6   7
ENDBRANCH   1   6
TORSDOF 4
ENDMDL
MODEL 3
REMARK VINA RESULT:      -6.8      3.391      5.073
REMARK SMILES O=C(O)CCc1ccccc1
REMARK SMILES IDX 4 1 2 2 1 3 3 4 5 6 6 7 7 8 11 9 8 10 10 11 9 12
REMARK H PARENT 3 5
REMARK Flexibility Score: inf
ROOT
ATOM      1  C   UNL     1       5.020   1.775   0.735  1.00  0.00     0.127 C 
ENDROOT
BRANCH   1   2
ATOM      2  C   UNL     1       4.475   1.107   1.930  1.00  0.00     0.303 C 
ATOM      3  O   UNL     1       5.148   0.194   2.482  1.00  0.00    -0.252 OA
BRANCH   2   4
ATOM      4  O   UNL     1       3.231   1.453   2.478  1.00  0.00    -0.481 OA
ATOM      5  H   UNL     1       2.559   0.718   2.652  1.00  0.00     0.296 HD
ENDBRANCH   2   4
ENDBRANCH   1   2
BRANCH   1   6
ATOM      6  C   UNL     1       6.534   1.881   0.776  1.00  0.00     0.047 C 
BRANCH   6   7
ATOM      7  C   UNL     1       7.153   1.092  -0.321  1.00  0.00    -0.047 A 
ATOM      8  C   UNL     1       6.399   0.188  -1.055  1.00  0.00     0.004 A 
ATOM      9  C   UNL     1       8.489   1.202  -0.660  1.00  0.00     0.004 A 
ATOM     10  C   UNL     1       6.945  -0.565  -2.070  1.00  0.00     0.000 A 
ATOM     11  C   UNL     1       9.035   0.448  -1.676  1.00  0.00     0.000 A 
ATOM     12  C   UNL     1       8.280  -0.448  -2.399  1.00  0.00     0.000 A 
ENDBRANCH   6   7
ENDBRANCH   1   6
TORSDOF 4
ENDMDL
MODEL 4
REMARK VINA RESULT:      -6.5      1.931      2.285
REMARK SMILES O=C(O)CCc1ccccc1
REMARK SMILES IDX 4 1 2 2 1 3 3 4 5 6 6 7 7 8 11 9 8 10 10 11 9 12
REMARK H PARENT 3 5
REMARK Flexibility Score: inf
ROOT
ATOM      1  C   UNL     1       8.184   0.195  -2.122  1.00  0.00     0.127 C 
ENDROOT
BRANCH   1   2
ATOM      2  C   UNL     1       9.333   0.383  -1.218  1.00  0.00     0.303 C 
ATOM      3  O   UNL     1       9.458  -0.379  -0.221  1.00  0.00    -0.252 OA
BRANCH   2   4
ATOM      4  O   UNL     1      10.295   1.381  -1.428  1.00  0.00    -0.481 OA
ATOM      5  H   UNL     1      11.243   1.211  -1.123  1.00  0.00     0.296 HD
ENDBRANCH   2   4
ENDBRANCH   1   2
BRANCH   1   6
ATOM      6  C   UNL     1       7.093  -0.654  -1.494  1.00  0.00     0.047 C 
BRANCH   6   7
ATOM      7  C   UNL     1       6.337   0.120  -0.475  1.00  0.00    -0.047 A 
ATOM      8  C   UNL     1       6.139  -0.393   0.799  1.00  0.00     0.004 A 
ATOM      9  C   UNL     1       5.789   1.363  -0.733  1.00  0.00     0.004 A 
ATOM     10  C   UNL     1       5.435   0.293   1.762  1.00  0.00     0.000 A 
ATOM     11  C   UNL     1       5.084   2.049   0.233  1.00  0.00     0.000 A 
ATOM     12  C   UNL     1       4.892   1.533   1.494  1.00  0.00     0.000 A 
ENDBRANCH   6   7
ENDBRANCH   1   6
TORSDOF 4
ENDMDL
MODEL 5
REMARK VINA RESULT:      -6.5      1.982      2.909
REMARK SMILES O=C(O)CCc1ccccc1
REMARK SMILES IDX 4 1 2 2 1 3 3 4 5 6 6 7 7 8 11 9 8 10 10 11 9 12
REMARK H PARENT 3 5
REMARK Flexibility Score: inf
ROOT
ATOM      1  C   UNL     1       8.323  -1.743   1.182  1.00  0.00     0.127 C 
ENDROOT
BRANCH   1   2
ATOM      2  C   UNL     1       8.720  -2.976   0.478  1.00  0.00     0.303 C 
ATOM      3  O   UNL     1       9.475  -3.798   1.063  1.00  0.00    -0.252 OA
BRANCH   2   4
ATOM      4  O   UNL     1       8.284  -3.268  -0.822  1.00  0.00    -0.481 OA
ATOM      5  H   UNL     1       8.101  -2.500  -1.455  1.00  0.00     0.296 HD
ENDBRANCH   2   4
ENDBRANCH   1   2
BRANCH   1   6
ATOM      6  C   UNL     1       6.825  -1.672   1.416  1.00  0.00     0.047 C 
BRANCH   6   7
ATOM      7  C   UNL     1       6.261  -0.407   0.879  1.00  0.00    -0.047 A 
ATOM      8  C   UNL     1       6.499  -0.027  -0.434  1.00  0.00     0.004 A 
ATOM      9  C   UNL     1       5.491   0.452   1.642  1.00  0.00     0.004 A 
ATOM     10  C   UNL     1       5.999   1.143  -0.958  1.00  0.00     0.000 A 
ATOM     11  C   UNL     1       4.991   1.624   1.116  1.00  0.00     0.000 A 
ATOM     12  C   UNL     1       5.233   1.995  -0.188  1.00  0.00     0.000 A 
ENDBRANCH   6   7
ENDBRANCH   1   6
TORSDOF 4
ENDMDL
