@<TRIPOS>MOLECULE
/home/cewinharhar/GITHUB/reincatalyze/data/processed/docking_pred/2023-Apr-25-2248_maxeplen10_maxtrainstep1000_exh16_gamma099_lrac3e-4_lrcr1e-3/3ef00b253c4480de2280c2f95d83164b82996574_ligand_2.pdbqt
 12 12 0 0 0
SMALL
GASTEIGER

@<TRIPOS>ATOM
      1  C          8.4190   -0.5830   -2.2210 C.3     1  UNL1        0.1270
      2  C          8.4530   -1.8810   -2.9180 C.2     1  UNL1        0.3030
      3  O          9.5580   -2.4710   -3.0590 O.2     1  UNL1       -0.2520
      4  O          7.2960   -2.4860   -3.4290 O.3     1  UNL1       -0.4810
      5  H          6.4150   -1.9990   -3.3370 H       1  UNL1        0.2960
      6  C          7.0240    0.0160   -2.1920 C.3     1  UNL1        0.0470
      7  C          6.5010    0.0790   -0.8030 C.2     1  UNL1       -0.0470
      8  C          5.8770    1.2260   -0.3330 C.2     1  UNL1        0.0040
      9  C          6.6100   -0.9740    0.0870 C.2     1  UNL1        0.0040
     10  C          5.3910    1.3200    0.9510 C.2     1  UNL1        0.0000
     11  C          6.1230   -0.8790    1.3730 C.2     1  UNL1        0.0000
     12  C          5.5070    0.2630    1.8320 C.2     1  UNL1        0.0000
@<TRIPOS>BOND
     1     4     5    1
     2     4     2    1
     3     3     2    2
     4     2     1    1
     5     1     6    1
     6     6     7    1
     7     7     8    2
     8     7     9    1
     9     8    10    1
    10     9    11    2
    11    10    12    2
    12    11    12    1
