@<TRIPOS>MOLECULE
/home/cewinharhar/GITHUB/reincatalyze/data/processed/docking_pred/2023-Apr-25-2248_maxeplen10_maxtrainstep1000_exh16_gamma099_lrac3e-4_lrcr1e-3/404021d27c656f8fbd9408a440432f577c9906d0_ligand_2.pdbqt
 12 12 0 0 0
SMALL
GASTEIGER

@<TRIPOS>ATOM
      1  C          8.4200   -0.5960   -2.2100 C.3     1  UNL1        0.1270
      2  C          8.4490   -1.8790   -2.9350 C.2     1  UNL1        0.3030
      3  O          9.5560   -2.4570   -3.1110 O.2     1  UNL1       -0.2520
      4  O          7.2860   -2.4810   -3.4360 O.3     1  UNL1       -0.4810
      5  H          6.3900   -2.0950   -3.1720 H       1  UNL1        0.2960
      6  C          7.0120   -0.0390   -2.0860 C.3     1  UNL1        0.0470
      7  C          6.5500   -0.0730   -0.6730 C.2     1  UNL1       -0.0470
      8  C          6.7760   -1.1890    0.1190 C.2     1  UNL1        0.0040
      9  C          5.8740    0.9790   -0.0820 C.2     1  UNL1        0.0040
     10  C          6.3510   -1.2550    1.4260 C.2     1  UNL1        0.0000
     11  C          5.4490    0.9110    1.2270 C.2     1  UNL1        0.0000
     12  C          5.6750   -0.2000    2.0070 C.2     1  UNL1        0.0000
@<TRIPOS>BOND
     1     4     5    1
     2     4     2    1
     3     3     2    2
     4     2     1    1
     5     1     6    1
     6     6     7    1
     7     7     9    2
     8     7     8    1
     9     9    11    1
    10     8    10    2
    11    11    12    2
    12    10    12    1
