@<TRIPOS>MOLECULE
/home/cewinharhar/GITHUB/reincatalyze/data/processed/docking_pred/2023-Apr-25-2248_maxeplen10_maxtrainstep1000_exh16_gamma099_lrac3e-4_lrcr1e-3/404021d27c656f8fbd9408a440432f577c9906d0_ligand_2.pdbqt
 12 12 0 0 0
SMALL
GASTEIGER

@<TRIPOS>ATOM
      1  C          7.3030   -1.2620   -2.4500 C.3     1  UNL1        0.1270
      2  C          8.7590   -1.4120   -2.6140 C.2     1  UNL1        0.3030
      3  O          9.5240   -0.5420   -2.1160 O.2     1  UNL1       -0.2520
      4  O          9.3270   -2.4920   -3.3060 O.3     1  UNL1       -0.4810
      5  H          9.4200   -2.4270   -4.3110 H       1  UNL1        0.2960
      6  C          6.9250    0.0990   -1.8930 C.3     1  UNL1        0.0470
      7  C          6.4800   -0.0100   -0.4790 C.2     1  UNL1       -0.0470
      8  C          6.8110   -1.1200    0.2840 C.2     1  UNL1        0.0040
      9  C          5.7190    0.9630    0.1430 C.2     1  UNL1        0.0040
     10  C          6.4060   -1.2550    1.5920 C.2     1  UNL1        0.0000
     11  C          5.3140    0.8270    1.4530 C.2     1  UNL1        0.0000
     12  C          5.6450   -0.2790    2.2030 C.2     1  UNL1        0.0000
@<TRIPOS>BOND
     1     5     4    1
     2     4     2    1
     3     2     1    1
     4     2     3    2
     5     1     6    1
     6     6     7    1
     7     7     9    2
     8     7     8    1
     9     9    11    1
    10     8    10    2
    11    11    12    2
    12    10    12    1
