@<TRIPOS>MOLECULE
/home/cewinharhar/GITHUB/reincatalyze/data/processed/docking_pred/2023-Apr-25-2248_maxeplen10_maxtrainstep1000_exh16_gamma099_lrac3e-4_lrcr1e-3/404021d27c656f8fbd9408a440432f577c9906d0_ligand_2.pdbqt
 12 12 0 0 0
SMALL
GASTEIGER

@<TRIPOS>ATOM
      1  C          6.0480    1.3700    1.1850 C.3     1  UNL1        0.1270
      2  C          5.1870    0.5150    2.0210 C.2     1  UNL1        0.3030
      3  O          5.6020   -0.6270    2.3600 O.2     1  UNL1       -0.2520
      4  O          3.9200    0.9280    2.4560 O.3     1  UNL1       -0.4810
      5  H          3.1630    0.2570    2.4470 H       1  UNL1        0.2960
      6  C          5.7310    1.2310   -0.2940 C.3     1  UNL1        0.0470
      7  C          6.8360    0.5450   -1.0130 C.2     1  UNL1       -0.0470
      8  C          8.1400    1.0110   -0.9180 C.2     1  UNL1        0.0040
      9  C          6.6330   -0.5670   -1.8100 C.2     1  UNL1        0.0040
     10  C          9.1820    0.4050   -1.5800 C.2     1  UNL1        0.0000
     11  C          7.6790   -1.1730   -2.4730 C.2     1  UNL1        0.0000
     12  C          8.9690   -0.7040   -2.3740 C.2     1  UNL1        0.0000
@<TRIPOS>BOND
     1    11    12    2
     2    11     9    1
     3    12    10    1
     4     9     7    2
     5    10     8    2
     6     7     8    1
     7     7     6    1
     8     6     1    1
     9     1     2    1
    10     2     3    2
    11     2     4    1
    12     5     4    1
