@<TRIPOS>MOLECULE
/home/cewinharhar/GITHUB/reincatalyze/data/processed/docking_pred/2023-Apr-25-2248_maxeplen10_maxtrainstep1000_exh16_gamma099_lrac3e-4_lrcr1e-3/404021d27c656f8fbd9408a440432f577c9906d0_ligand_2.pdbqt
 12 12 0 0 0
SMALL
GASTEIGER

@<TRIPOS>ATOM
      1  C          6.0390   -0.7370    1.8480 C.3     1  UNL1        0.1270
      2  C          5.3400    0.5500    2.0070 C.2     1  UNL1        0.3030
      3  O          4.1530    0.5540    2.4310 O.2     1  UNL1       -0.2520
      4  O          5.9510    1.7760    1.7050 O.3     1  UNL1       -0.4810
      5  H          6.8190    1.7680    1.1860 H       1  UNL1        0.2960
      6  C          7.5070   -0.5540    1.5060 C.3     1  UNL1        0.0470
      7  C          7.7050   -0.4660    0.0360 C.2     1  UNL1       -0.0470
      8  C          8.6420    0.4040   -0.5010 C.2     1  UNL1        0.0040
      9  C          6.9760   -1.2220   -0.8640 C.2     1  UNL1        0.0040
     10  C          8.8420    0.5170   -1.8580 C.2     1  UNL1        0.0000
     11  C          7.1770   -1.1090   -2.2230 C.2     1  UNL1        0.0000
     12  C          8.1080   -0.2420   -2.7480 C.2     1  UNL1        0.0000
@<TRIPOS>BOND
     1    12    11    2
     2    12    10    1
     3    11     9    1
     4    10     8    2
     5     9     7    2
     6     8     7    1
     7     7     6    1
     8     5     4    1
     9     6     1    1
    10     4     2    1
    11     1     2    1
    12     2     3    2
