MODEL 1
REMARK VINA RESULT:      -7.3      0.000      0.000
REMARK SMILES O=C(O)CCc1ccccc1
REMARK SMILES IDX 4 1 2 2 1 3 3 4 5 6 6 7 7 8 11 9 8 10 10 11 9 12
REMARK H PARENT 3 5
REMARK Flexibility Score: inf
ROOT
ATOM      1  C   UNL     1       8.420  -0.596  -2.210  1.00  0.00     0.127 C 
ENDROOT
BRANCH   1   2
ATOM      2  C   UNL     1       8.449  -1.879  -2.935  1.00  0.00     0.303 C 
ATOM      3  O   UNL     1       9.556  -2.457  -3.111  1.00  0.00    -0.252 OA
BRANCH   2   4
ATOM      4  O   UNL     1       7.286  -2.481  -3.436  1.00  0.00    -0.481 OA
ATOM      5  H   UNL     1       6.390  -2.095  -3.172  1.00  0.00     0.296 HD
ENDBRANCH   2   4
ENDBRANCH   1   2
BRANCH   1   6
ATOM      6  C   UNL     1       7.012  -0.039  -2.086  1.00  0.00     0.047 C 
BRANCH   6   7
ATOM      7  C   UNL     1       6.550  -0.073  -0.673  1.00  0.00    -0.047 A 
ATOM      8  C   UNL     1       6.776  -1.189   0.119  1.00  0.00     0.004 A 
ATOM      9  C   UNL     1       5.874   0.979  -0.082  1.00  0.00     0.004 A 
ATOM     10  C   UNL     1       6.351  -1.255   1.426  1.00  0.00     0.000 A 
ATOM     11  C   UNL     1       5.449   0.911   1.227  1.00  0.00     0.000 A 
ATOM     12  C   UNL     1       5.675  -0.200   2.007  1.00  0.00     0.000 A 
ENDBRANCH   6   7
ENDBRANCH   1   6
TORSDOF 4
ENDMDL
MODEL 2
REMARK VINA RESULT:      -7.2      0.114      1.723
REMARK SMILES O=C(O)CCc1ccccc1
REMARK SMILES IDX 4 1 2 2 1 3 3 4 5 6 6 7 7 8 11 9 8 10 10 11 9 12
REMARK H PARENT 3 5
REMARK Flexibility Score: inf
ROOT
ATOM      1  C   UNL     1       8.461  -0.650  -2.139  1.00  0.00     0.127 C 
ENDROOT
BRANCH   1   2
ATOM      2  C   UNL     1       8.434  -1.913  -2.898  1.00  0.00     0.303 C 
ATOM      3  O   UNL     1       7.321  -2.406  -3.226  1.00  0.00    -0.252 OA
BRANCH   2   4
ATOM      4  O   UNL     1       9.606  -2.587  -3.270  1.00  0.00    -0.481 OA
ATOM      5  H   UNL     1       9.794  -3.492  -2.860  1.00  0.00     0.296 HD
ENDBRANCH   2   4
ENDBRANCH   1   2
BRANCH   1   6
ATOM      6  C   UNL     1       7.083  -0.026  -2.014  1.00  0.00     0.047 C 
BRANCH   6   7
ATOM      7  C   UNL     1       6.587  -0.106  -0.615  1.00  0.00    -0.047 A 
ATOM      8  C   UNL     1       5.875   0.945  -0.055  1.00  0.00     0.004 A 
ATOM      9  C   UNL     1       6.809  -1.204   0.195  1.00  0.00     0.004 A 
ATOM     10  C   UNL     1       5.411   0.906   1.239  1.00  0.00     0.000 A 
ATOM     11  C   UNL     1       6.343  -1.242   1.492  1.00  0.00     0.000 A 
ATOM     12  C   UNL     1       5.639  -0.195   2.041  1.00  0.00     0.000 A 
ENDBRANCH   6   7
ENDBRANCH   1   6
TORSDOF 4
ENDMDL
MODEL 3
REMARK VINA RESULT:      -7.0      0.812      1.017
REMARK SMILES O=C(O)CCc1ccccc1
REMARK SMILES IDX 4 1 2 2 1 3 3 4 5 6 6 7 7 8 11 9 8 10 10 11 9 12
REMARK H PARENT 3 5
REMARK Flexibility Score: inf
ROOT
ATOM      1  C   UNL     1       7.303  -1.262  -2.450  1.00  0.00     0.127 C 
ENDROOT
BRANCH   1   2
ATOM      2  C   UNL     1       8.759  -1.412  -2.614  1.00  0.00     0.303 C 
ATOM      3  O   UNL     1       9.524  -0.542  -2.116  1.00  0.00    -0.252 OA
BRANCH   2   4
ATOM      4  O   UNL     1       9.327  -2.492  -3.306  1.00  0.00    -0.481 OA
ATOM      5  H   UNL     1       9.420  -2.427  -4.311  1.00  0.00     0.296 HD
ENDBRANCH   2   4
ENDBRANCH   1   2
BRANCH   1   6
ATOM      6  C   UNL     1       6.925   0.099  -1.893  1.00  0.00     0.047 C 
BRANCH   6   7
ATOM      7  C   UNL     1       6.480  -0.010  -0.479  1.00  0.00    -0.047 A 
ATOM      8  C   UNL     1       6.811  -1.120   0.284  1.00  0.00     0.004 A 
ATOM      9  C   UNL     1       5.719   0.963   0.143  1.00  0.00     0.004 A 
ATOM     10  C   UNL     1       6.406  -1.255   1.592  1.00  0.00     0.000 A 
ATOM     11  C   UNL     1       5.314   0.827   1.453  1.00  0.00     0.000 A 
ATOM     12  C   UNL     1       5.645  -0.279   2.203  1.00  0.00     0.000 A 
ENDBRANCH   6   7
ENDBRANCH   1   6
TORSDOF 4
ENDMDL
MODEL 4
REMARK VINA RESULT:      -6.6      3.219      4.987
REMARK SMILES O=C(O)CCc1ccccc1
REMARK SMILES IDX 4 1 2 2 1 3 3 4 5 6 6 7 7 8 11 9 8 10 10 11 9 12
REMARK H PARENT 3 5
REMARK Flexibility Score: inf
ROOT
ATOM      1  C   UNL     1       6.039  -0.737   1.848  1.00  0.00     0.127 C 
ENDROOT
BRANCH   1   2
ATOM      2  C   UNL     1       5.340   0.550   2.007  1.00  0.00     0.303 C 
ATOM      3  O   UNL     1       4.153   0.554   2.431  1.00  0.00    -0.252 OA
BRANCH   2   4
ATOM      4  O   UNL     1       5.951   1.776   1.705  1.00  0.00    -0.481 OA
ATOM      5  H   UNL     1       6.819   1.768   1.186  1.00  0.00     0.296 HD
ENDBRANCH   2   4
ENDBRANCH   1   2
BRANCH   1   6
ATOM      6  C   UNL     1       7.507  -0.554   1.506  1.00  0.00     0.047 C 
BRANCH   6   7
ATOM      7  C   UNL     1       7.705  -0.466   0.036  1.00  0.00    -0.047 A 
ATOM      8  C   UNL     1       8.642   0.404  -0.501  1.00  0.00     0.004 A 
ATOM      9  C   UNL     1       6.976  -1.222  -0.864  1.00  0.00     0.004 A 
ATOM     10  C   UNL     1       8.842   0.517  -1.858  1.00  0.00     0.000 A 
ATOM     11  C   UNL     1       7.177  -1.109  -2.223  1.00  0.00     0.000 A 
ATOM     12  C   UNL     1       8.108  -0.242  -2.748  1.00  0.00     0.000 A 
ENDBRANCH   6   7
ENDBRANCH   1   6
TORSDOF 4
ENDMDL
MODEL 5
REMARK VINA RESULT:      -6.5      3.120      4.884
REMARK SMILES O=C(O)CCc1ccccc1
REMARK SMILES IDX 4 1 2 2 1 3 3 4 5 6 6 7 7 8 11 9 8 10 10 11 9 12
REMARK H PARENT 3 5
REMARK Flexibility Score: inf
ROOT
ATOM      1  C   UNL     1       6.048   1.370   1.185  1.00  0.00     0.127 C 
ENDROOT
BRANCH   1   2
ATOM      2  C   UNL     1       5.187   0.515   2.021  1.00  0.00     0.303 C 
ATOM      3  O   UNL     1       5.602  -0.627   2.360  1.00  0.00    -0.252 OA
BRANCH   2   4
ATOM      4  O   UNL     1       3.920   0.928   2.456  1.00  0.00    -0.481 OA
ATOM      5  H   UNL     1       3.163   0.257   2.447  1.00  0.00     0.296 HD
ENDBRANCH   2   4
ENDBRANCH   1   2
BRANCH   1   6
ATOM      6  C   UNL     1       5.731   1.231  -0.294  1.00  0.00     0.047 C 
BRANCH   6   7
ATOM      7  C   UNL     1       6.836   0.545  -1.013  1.00  0.00    -0.047 A 
ATOM      8  C   UNL     1       8.140   1.011  -0.918  1.00  0.00     0.004 A 
ATOM      9  C   UNL     1       6.633  -0.567  -1.810  1.00  0.00     0.004 A 
ATOM     10  C   UNL     1       9.182   0.405  -1.580  1.00  0.00     0.000 A 
ATOM     11  C   UNL     1       7.679  -1.173  -2.473  1.00  0.00     0.000 A 
ATOM     12  C   UNL     1       8.969  -0.704  -2.374  1.00  0.00     0.000 A 
ENDBRANCH   6   7
ENDBRANCH   1   6
TORSDOF 4
ENDMDL
