@<TRIPOS>MOLECULE
/home/cewinharhar/GITHUB/reincatalyze/data/processed/docking_pred/2023-Apr-25-2248_maxeplen10_maxtrainstep1000_exh16_gamma099_lrac3e-4_lrcr1e-3/404021d27c656f8fbd9408a440432f577c9906d0_ligand_2.pdbqt
 12 12 0 0 0
SMALL
GASTEIGER

@<TRIPOS>ATOM
      1  C          8.4610   -0.6500   -2.1390 C.3     1  UNL1        0.1270
      2  C          8.4340   -1.9130   -2.8980 C.2     1  UNL1        0.3030
      3  O          7.3210   -2.4060   -3.2260 O.2     1  UNL1       -0.2520
      4  O          9.6060   -2.5870   -3.2700 O.3     1  UNL1       -0.4810
      5  H          9.7940   -3.4920   -2.8600 H       1  UNL1        0.2960
      6  C          7.0830   -0.0260   -2.0140 C.3     1  UNL1        0.0470
      7  C          6.5870   -0.1060   -0.6150 C.2     1  UNL1       -0.0470
      8  C          5.8750    0.9450   -0.0550 C.2     1  UNL1        0.0040
      9  C          6.8090   -1.2040    0.1950 C.2     1  UNL1        0.0040
     10  C          5.4110    0.9060    1.2390 C.2     1  UNL1        0.0000
     11  C          6.3430   -1.2420    1.4920 C.2     1  UNL1        0.0000
     12  C          5.6390   -0.1950    2.0410 C.2     1  UNL1        0.0000
@<TRIPOS>BOND
     1     4     2    1
     2     4     5    1
     3     3     2    2
     4     2     1    1
     5     1     6    1
     6     6     7    1
     7     7     8    2
     8     7     9    1
     9     8    10    1
    10     9    11    2
    11    10    12    2
    12    11    12    1
