@<TRIPOS>MOLECULE
/home/cewinharhar/GITHUB/reincatalyze/data/processed/docking_pred/2023-Apr-25-2248_maxeplen10_maxtrainstep1000_exh16_gamma099_lrac3e-4_lrcr1e-3/41d0b72e0d67d5e9a3b384f9954b5fa92cfe5642_ligand_2.pdbqt
 12 12 0 0 0
SMALL
GASTEIGER

@<TRIPOS>ATOM
      1  C          8.1990    0.2350   -2.0990 C.3     1  UNL1        0.1270
      2  C          9.3690    0.3860   -1.2150 C.2     1  UNL1        0.3030
      3  O          9.4790   -0.3700   -0.2120 O.2     1  UNL1       -0.2520
      4  O         10.3660    1.3420   -1.4520 O.3     1  UNL1       -0.4810
      5  H         11.2830    1.1930   -1.0530 H       1  UNL1        0.2960
      6  C          7.1280   -0.6510   -1.4880 C.3     1  UNL1        0.0470
      7  C          6.3510    0.0860   -0.4570 C.2     1  UNL1       -0.0470
      8  C          5.7930    1.3240   -0.7430 C.2     1  UNL1        0.0040
      9  C          6.1520   -0.4020    0.8210 C.2     1  UNL1        0.0040
     10  C          5.0780    2.0360    0.1920 C.2     1  UNL1        0.0000
     11  C          5.4350    0.3130    1.7570 C.2     1  UNL1        0.0000
     12  C          4.8850    1.5410    1.4660 C.2     1  UNL1        0.0000
@<TRIPOS>BOND
     1     1     6    1
     2     1     2    1
     3     6     7    1
     4     4     2    1
     5     4     5    1
     6     2     3    2
     7     8     7    2
     8     8    10    1
     9     7     9    1
    10    10    12    2
    11     9    11    2
    12    12    11    1
