@<TRIPOS>MOLECULE
/home/cewinharhar/GITHUB/reincatalyze/data/processed/docking_pred/2023-Apr-25-2248_maxeplen10_maxtrainstep1000_exh16_gamma099_lrac3e-4_lrcr1e-3/41d0b72e0d67d5e9a3b384f9954b5fa92cfe5642_ligand_2.pdbqt
 12 12 0 0 0
SMALL
GASTEIGER

@<TRIPOS>ATOM
      1  C          8.3840   -0.6280   -2.1580 C.3     1  UNL1        0.1270
      2  C          8.3900   -1.9000   -2.9000 C.2     1  UNL1        0.3030
      3  O          7.2910   -2.4130   -3.2440 O.2     1  UNL1       -0.2520
      4  O          9.5780   -2.5620   -3.2410 O.3     1  UNL1       -0.4810
      5  H          9.8600   -3.3640   -2.6930 H       1  UNL1        0.2960
      6  C          7.0110    0.0190   -2.1380 C.3     1  UNL1        0.0470
      7  C          6.4700    0.0800   -0.7550 C.2     1  UNL1       -0.0470
      8  C          5.7990    1.2080   -0.3060 C.2     1  UNL1        0.0040
      9  C          6.6090   -0.9570    0.1490 C.2     1  UNL1        0.0040
     10  C          5.2960    1.2990    0.9710 C.2     1  UNL1        0.0000
     11  C          6.1050   -0.8650    1.4280 C.2     1  UNL1        0.0000
     12  C          5.4410    0.2590    1.8660 C.2     1  UNL1        0.0000
@<TRIPOS>BOND
     1     3     2    2
     2     4     2    1
     3     4     5    1
     4     2     1    1
     5     1     6    1
     6     6     7    1
     7     7     8    2
     8     7     9    1
     9     8    10    1
    10     9    11    2
    11    10    12    2
    12    11    12    1
