@<TRIPOS>MOLECULE
/home/cewinharhar/GITHUB/reincatalyze/data/processed/docking_pred/2023-Apr-25-2248_maxeplen10_maxtrainstep1000_exh16_gamma099_lrac3e-4_lrcr1e-3/41d0b72e0d67d5e9a3b384f9954b5fa92cfe5642_ligand_2.pdbqt
 12 12 0 0 0
SMALL
GASTEIGER

@<TRIPOS>ATOM
      1  C          8.3980   -0.7260   -2.0440 C.3     1  UNL1        0.1270
      2  C          8.4300   -1.9450   -2.8720 C.2     1  UNL1        0.3030
      3  O          9.5340   -2.5220   -3.0690 O.2     1  UNL1       -0.2520
      4  O          7.2730   -2.4880   -3.4490 O.3     1  UNL1       -0.4810
      5  H          7.0860   -3.4730   -3.3190 H       1  UNL1        0.2960
      6  C          7.0480   -0.0330   -2.0950 C.3     1  UNL1        0.0470
      7  C          6.4700    0.1080   -0.7330 C.2     1  UNL1       -0.0470
      8  C          6.5780   -0.9200    0.1920 C.2     1  UNL1        0.0040
      9  C          5.7960    1.2430   -0.3210 C.2     1  UNL1        0.0040
     10  C          6.0440   -0.8230    1.4570 C.2     1  UNL1        0.0000
     11  C          5.2630    1.3390    0.9460 C.2     1  UNL1        0.0000
     12  C          5.3730    0.3140    1.8580 C.2     1  UNL1        0.0000
@<TRIPOS>BOND
     1     4     5    1
     2     4     2    1
     3     3     2    2
     4     2     1    1
     5     6     1    1
     6     6     7    1
     7     7     9    2
     8     7     8    1
     9     9    11    1
    10     8    10    2
    11    11    12    2
    12    10    12    1
