MODEL 1
REMARK VINA RESULT:      -7.4      0.000      0.000
REMARK SMILES O=C(O)CCc1ccccc1
REMARK SMILES IDX 4 1 2 2 1 3 3 4 5 6 6 7 7 8 11 9 8 10 10 11 9 12
REMARK H PARENT 3 5
REMARK Flexibility Score: inf
ROOT
ATOM      1  C   UNL     1       8.398  -0.726  -2.044  1.00  0.00     0.127 C 
ENDROOT
BRANCH   1   2
ATOM      2  C   UNL     1       8.430  -1.945  -2.872  1.00  0.00     0.303 C 
ATOM      3  O   UNL     1       9.534  -2.522  -3.069  1.00  0.00    -0.252 OA
BRANCH   2   4
ATOM      4  O   UNL     1       7.273  -2.488  -3.449  1.00  0.00    -0.481 OA
ATOM      5  H   UNL     1       7.086  -3.473  -3.319  1.00  0.00     0.296 HD
ENDBRANCH   2   4
ENDBRANCH   1   2
BRANCH   1   6
ATOM      6  C   UNL     1       7.048  -0.033  -2.095  1.00  0.00     0.047 C 
BRANCH   6   7
ATOM      7  C   UNL     1       6.470   0.108  -0.733  1.00  0.00    -0.047 A 
ATOM      8  C   UNL     1       6.578  -0.920   0.192  1.00  0.00     0.004 A 
ATOM      9  C   UNL     1       5.796   1.243  -0.321  1.00  0.00     0.004 A 
ATOM     10  C   UNL     1       6.044  -0.823   1.457  1.00  0.00     0.000 A 
ATOM     11  C   UNL     1       5.263   1.339   0.946  1.00  0.00     0.000 A 
ATOM     12  C   UNL     1       5.373   0.314   1.858  1.00  0.00     0.000 A 
ENDBRANCH   6   7
ENDBRANCH   1   6
TORSDOF 4
ENDMDL
MODEL 2
REMARK VINA RESULT:      -7.2      0.112      1.724
REMARK SMILES O=C(O)CCc1ccccc1
REMARK SMILES IDX 4 1 2 2 1 3 3 4 5 6 6 7 7 8 11 9 8 10 10 11 9 12
REMARK H PARENT 3 5
REMARK Flexibility Score: inf
ROOT
ATOM      1  C   UNL     1       8.384  -0.628  -2.158  1.00  0.00     0.127 C 
ENDROOT
BRANCH   1   2
ATOM      2  C   UNL     1       8.390  -1.900  -2.900  1.00  0.00     0.303 C 
ATOM      3  O   UNL     1       7.291  -2.413  -3.244  1.00  0.00    -0.252 OA
BRANCH   2   4
ATOM      4  O   UNL     1       9.578  -2.562  -3.241  1.00  0.00    -0.481 OA
ATOM      5  H   UNL     1       9.860  -3.364  -2.693  1.00  0.00     0.296 HD
ENDBRANCH   2   4
ENDBRANCH   1   2
BRANCH   1   6
ATOM      6  C   UNL     1       7.011   0.019  -2.138  1.00  0.00     0.047 C 
BRANCH   6   7
ATOM      7  C   UNL     1       6.470   0.080  -0.755  1.00  0.00    -0.047 A 
ATOM      8  C   UNL     1       5.799   1.208  -0.306  1.00  0.00     0.004 A 
ATOM      9  C   UNL     1       6.609  -0.957   0.149  1.00  0.00     0.004 A 
ATOM     10  C   UNL     1       5.296   1.299   0.971  1.00  0.00     0.000 A 
ATOM     11  C   UNL     1       6.105  -0.865   1.428  1.00  0.00     0.000 A 
ATOM     12  C   UNL     1       5.441   0.259   1.866  1.00  0.00     0.000 A 
ENDBRANCH   6   7
ENDBRANCH   1   6
TORSDOF 4
ENDMDL
MODEL 3
REMARK VINA RESULT:      -6.8      3.398      5.103
REMARK SMILES O=C(O)CCc1ccccc1
REMARK SMILES IDX 4 1 2 2 1 3 3 4 5 6 6 7 7 8 11 9 8 10 10 11 9 12
REMARK H PARENT 3 5
REMARK Flexibility Score: inf
ROOT
ATOM      1  C   UNL     1       4.999   1.757   0.725  1.00  0.00     0.127 C 
ENDROOT
BRANCH   1   2
ATOM      2  C   UNL     1       4.469   1.099   1.932  1.00  0.00     0.303 C 
ATOM      3  O   UNL     1       5.152   0.194   2.486  1.00  0.00    -0.252 OA
BRANCH   2   4
ATOM      4  O   UNL     1       3.230   1.444   2.489  1.00  0.00    -0.481 OA
ATOM      5  H   UNL     1       3.095   1.320   3.483  1.00  0.00     0.296 HD
ENDBRANCH   2   4
ENDBRANCH   1   2
BRANCH   1   6
ATOM      6  C   UNL     1       6.513   1.870   0.750  1.00  0.00     0.047 C 
BRANCH   6   7
ATOM      7  C   UNL     1       7.126   1.058  -0.334  1.00  0.00    -0.047 A 
ATOM      8  C   UNL     1       8.462   1.219  -0.669  1.00  0.00     0.004 A 
ATOM      9  C   UNL     1       6.413   0.123  -1.063  1.00  0.00     0.004 A 
ATOM     10  C   UNL     1       9.056   0.491  -1.675  1.00  0.00     0.000 A 
ATOM     11  C   UNL     1       7.010  -0.606  -2.069  1.00  0.00     0.000 A 
ATOM     12  C   UNL     1       8.336  -0.439  -2.397  1.00  0.00     0.000 A 
ENDBRANCH   6   7
ENDBRANCH   1   6
TORSDOF 4
ENDMDL
MODEL 4
REMARK VINA RESULT:      -6.6      1.950      2.644
REMARK SMILES O=C(O)CCc1ccccc1
REMARK SMILES IDX 4 1 2 2 1 3 3 4 5 6 6 7 7 8 11 9 8 10 10 11 9 12
REMARK H PARENT 3 5
REMARK Flexibility Score: inf
ROOT
ATOM      1  C   UNL     1       8.199   0.235  -2.099  1.00  0.00     0.127 C 
ENDROOT
BRANCH   1   2
ATOM      2  C   UNL     1       9.369   0.386  -1.215  1.00  0.00     0.303 C 
ATOM      3  O   UNL     1       9.479  -0.370  -0.212  1.00  0.00    -0.252 OA
BRANCH   2   4
ATOM      4  O   UNL     1      10.366   1.342  -1.452  1.00  0.00    -0.481 OA
ATOM      5  H   UNL     1      11.283   1.193  -1.053  1.00  0.00     0.296 HD
ENDBRANCH   2   4
ENDBRANCH   1   2
BRANCH   1   6
ATOM      6  C   UNL     1       7.128  -0.651  -1.488  1.00  0.00     0.047 C 
BRANCH   6   7
ATOM      7  C   UNL     1       6.351   0.086  -0.457  1.00  0.00    -0.047 A 
ATOM      8  C   UNL     1       5.793   1.324  -0.743  1.00  0.00     0.004 A 
ATOM      9  C   UNL     1       6.152  -0.402   0.821  1.00  0.00     0.004 A 
ATOM     10  C   UNL     1       5.078   2.036   0.192  1.00  0.00     0.000 A 
ATOM     11  C   UNL     1       5.435   0.313   1.757  1.00  0.00     0.000 A 
ATOM     12  C   UNL     1       4.885   1.541   1.466  1.00  0.00     0.000 A 
ENDBRANCH   6   7
ENDBRANCH   1   6
TORSDOF 4
ENDMDL
MODEL 5
REMARK VINA RESULT:      -6.6      1.895      2.844
REMARK SMILES O=C(O)CCc1ccccc1
REMARK SMILES IDX 4 1 2 2 1 3 3 4 5 6 6 7 7 8 11 9 8 10 10 11 9 12
REMARK H PARENT 3 5
REMARK Flexibility Score: inf
ROOT
ATOM      1  C   UNL     1       8.155  -1.718   1.207  1.00  0.00     0.127 C 
ENDROOT
BRANCH   1   2
ATOM      2  C   UNL     1       8.525  -2.878   0.377  1.00  0.00     0.303 C 
ATOM      3  O   UNL     1       9.243  -3.785   0.878  1.00  0.00    -0.252 OA
BRANCH   2   4
ATOM      4  O   UNL     1       8.103  -3.010  -0.954  1.00  0.00    -0.481 OA
ATOM      5  H   UNL     1       7.119  -2.905  -1.162  1.00  0.00     0.296 HD
ENDBRANCH   2   4
ENDBRANCH   1   2
BRANCH   1   6
ATOM      6  C   UNL     1       6.653  -1.606   1.399  1.00  0.00     0.047 C 
BRANCH   6   7
ATOM      7  C   UNL     1       6.142  -0.318   0.860  1.00  0.00    -0.047 A 
ATOM      8  C   UNL     1       6.403   0.052  -0.452  1.00  0.00     0.004 A 
ATOM      9  C   UNL     1       5.403   0.570   1.618  1.00  0.00     0.004 A 
ATOM     10  C   UNL     1       5.953   1.242  -0.978  1.00  0.00     0.000 A 
ATOM     11  C   UNL     1       4.953   1.761   1.090  1.00  0.00     0.000 A 
ATOM     12  C   UNL     1       5.217   2.123  -0.212  1.00  0.00     0.000 A 
ENDBRANCH   6   7
ENDBRANCH   1   6
TORSDOF 4
ENDMDL
