@<TRIPOS>MOLECULE
/home/cewinharhar/GITHUB/reincatalyze/data/processed/docking_pred/2023-Apr-25-2248_maxeplen10_maxtrainstep1000_exh16_gamma099_lrac3e-4_lrcr1e-3/41d0b72e0d67d5e9a3b384f9954b5fa92cfe5642_ligand_2.pdbqt
 12 12 0 0 0
SMALL
GASTEIGER

@<TRIPOS>ATOM
      1  C          8.1550   -1.7180    1.2070 C.3     1  UNL1        0.1270
      2  C          8.5250   -2.8780    0.3770 C.2     1  UNL1        0.3030
      3  O          9.2430   -3.7850    0.8780 O.2     1  UNL1       -0.2520
      4  O          8.1030   -3.0100   -0.9540 O.3     1  UNL1       -0.4810
      5  H          7.1190   -2.9050   -1.1620 H       1  UNL1        0.2960
      6  C          6.6530   -1.6060    1.3990 C.3     1  UNL1        0.0470
      7  C          6.1420   -0.3180    0.8600 C.2     1  UNL1       -0.0470
      8  C          6.4030    0.0520   -0.4520 C.2     1  UNL1        0.0040
      9  C          5.4030    0.5700    1.6180 C.2     1  UNL1        0.0040
     10  C          5.9530    1.2420   -0.9780 C.2     1  UNL1        0.0000
     11  C          4.9530    1.7610    1.0900 C.2     1  UNL1        0.0000
     12  C          5.2170    2.1230   -0.2120 C.2     1  UNL1        0.0000
@<TRIPOS>BOND
     1     5     4    1
     2    10     8    1
     3    10    12    2
     4     4     2    1
     5     8     7    2
     6    12    11    1
     7     2     3    2
     8     2     1    1
     9     7     6    1
    10     7     9    1
    11    11     9    2
    12     1     6    1
