@<TRIPOS>MOLECULE
/home/cewinharhar/GITHUB/reincatalyze/data/processed/docking_pred/2023-Apr-25-2248_maxeplen10_maxtrainstep1000_exh16_gamma099_lrac3e-4_lrcr1e-3/41d0b72e0d67d5e9a3b384f9954b5fa92cfe5642_ligand_2.pdbqt
 12 12 0 0 0
SMALL
GASTEIGER

@<TRIPOS>ATOM
      1  C          4.9990    1.7570    0.7250 C.3     1  UNL1        0.1270
      2  C          4.4690    1.0990    1.9320 C.2     1  UNL1        0.3030
      3  O          5.1520    0.1940    2.4860 O.2     1  UNL1       -0.2520
      4  O          3.2300    1.4440    2.4890 O.3     1  UNL1       -0.4810
      5  H          3.0950    1.3200    3.4830 H       1  UNL1        0.2960
      6  C          6.5130    1.8700    0.7500 C.3     1  UNL1        0.0470
      7  C          7.1260    1.0580   -0.3340 C.2     1  UNL1       -0.0470
      8  C          8.4620    1.2190   -0.6690 C.2     1  UNL1        0.0040
      9  C          6.4130    0.1230   -1.0630 C.2     1  UNL1        0.0040
     10  C          9.0560    0.4910   -1.6750 C.2     1  UNL1        0.0000
     11  C          7.0100   -0.6060   -2.0690 C.2     1  UNL1        0.0000
     12  C          8.3360   -0.4390   -2.3970 C.2     1  UNL1        0.0000
@<TRIPOS>BOND
     1    12    11    2
     2    12    10    1
     3    11     9    1
     4    10     8    2
     5     9     7    2
     6     8     7    1
     7     7     6    1
     8     1     6    1
     9     1     2    1
    10     2     3    2
    11     2     4    1
    12     4     5    1
