@<TRIPOS>MOLECULE
/home/cewinharhar/GITHUB/reincatalyze/data/processed/docking_pred/2023-Apr-25-2248_maxeplen10_maxtrainstep1000_exh16_gamma099_lrac3e-4_lrcr1e-3/42234a6127519c7502e2f6bf4b16ee47cf11c698_ligand_2.pdbqt
 12 12 0 0 0
SMALL
GASTEIGER

@<TRIPOS>ATOM
      1  C          8.3900   -0.7790   -1.9640 C.3     1  UNL1        0.1270
      2  C          8.3970   -1.9600   -2.8450 C.2     1  UNL1        0.3030
      3  O          7.2980   -2.4240   -3.2560 O.2     1  UNL1       -0.2520
      4  O          9.5850   -2.5880   -3.2450 O.3     1  UNL1       -0.4810
      5  H         10.1730   -2.1230   -3.9240 H       1  UNL1        0.2960
      6  C          7.0830   -0.0100   -2.0440 C.3     1  UNL1        0.0470
      7  C          6.4720    0.1430   -0.6980 C.2     1  UNL1       -0.0470
      8  C          6.5730   -0.8700    0.2440 C.2     1  UNL1        0.0040
      9  C          5.7740    1.2750   -0.3180 C.2     1  UNL1        0.0040
     10  C          6.0090   -0.7630    1.4950 C.2     1  UNL1        0.0000
     11  C          5.2100    1.3810    0.9350 C.2     1  UNL1        0.0000
     12  C          5.3140    0.3710    1.8650 C.2     1  UNL1        0.0000
@<TRIPOS>BOND
     1     5     4    1
     2     3     2    2
     3     4     2    1
     4     2     1    1
     5     6     1    1
     6     6     7    1
     7     7     9    2
     8     7     8    1
     9     9    11    1
    10     8    10    2
    11    11    12    2
    12    10    12    1
