@<TRIPOS>MOLECULE
/home/cewinharhar/GITHUB/reincatalyze/data/processed/docking_pred/2023-Apr-25-2248_maxeplen10_maxtrainstep1000_exh16_gamma099_lrac3e-4_lrcr1e-3/42234a6127519c7502e2f6bf4b16ee47cf11c698_ligand_2.pdbqt
 12 12 0 0 0
SMALL
GASTEIGER

@<TRIPOS>ATOM
      1  C          8.2430    0.2570   -2.1900 C.3     1  UNL1        0.1270
      2  C          9.3730    0.3810   -1.2520 C.2     1  UNL1        0.3030
      3  O          9.4410   -0.4050   -0.2680 O.2     1  UNL1       -0.2520
      4  O         10.3790    1.3440   -1.4150 O.3     1  UNL1       -0.4810
      5  H         11.1010    1.4140   -0.7100 H       1  UNL1        0.2960
      6  C          7.1030   -0.5610   -1.6110 C.3     1  UNL1        0.0470
      7  C          6.3430    0.2230   -0.6020 C.2     1  UNL1       -0.0470
      8  C          6.1380   -0.2780    0.6750 C.2     1  UNL1        0.0040
      9  C          5.8000    1.4650   -0.8750 C.2     1  UNL1        0.0040
     10  C          5.4300    0.4180    1.6280 C.2     1  UNL1        0.0000
     11  C          5.0910    2.1610    0.0810 C.2     1  UNL1        0.0000
     12  C          4.8900    1.6570    1.3460 C.2     1  UNL1        0.0000
@<TRIPOS>BOND
     1     1     6    1
     2     1     2    1
     3     6     7    1
     4     4     2    1
     5     4     5    1
     6     2     3    2
     7     9     7    2
     8     9    11    1
     9     7     8    1
    10    11    12    2
    11     8    10    2
    12    12    10    1
