@<TRIPOS>MOLECULE
/home/cewinharhar/GITHUB/reincatalyze/data/processed/docking_pred/2023-Apr-25-2248_maxeplen10_maxtrainstep1000_exh16_gamma099_lrac3e-4_lrcr1e-3/42234a6127519c7502e2f6bf4b16ee47cf11c698_ligand_2.pdbqt
 12 12 0 0 0
SMALL
GASTEIGER

@<TRIPOS>ATOM
      1  C          4.9820    1.7640    0.7280 C.3     1  UNL1        0.1270
      2  C          4.4500    1.0990    1.9300 C.2     1  UNL1        0.3030
      3  O          5.1270    0.1830    2.4730 O.2     1  UNL1       -0.2520
      4  O          3.2160    1.4500    2.4950 O.3     1  UNL1       -0.4810
      5  H          3.2110    1.9450    3.3760 H       1  UNL1        0.2960
      6  C          6.4950    1.8810    0.7590 C.3     1  UNL1        0.0470
      7  C          7.1130    1.0770   -0.3280 C.2     1  UNL1       -0.0470
      8  C          8.4560    1.2270   -0.6430 C.2     1  UNL1        0.0040
      9  C          6.4010    0.1600   -1.0790 C.2     1  UNL1        0.0040
     10  C          9.0550    0.5060   -1.6500 C.2     1  UNL1        0.0000
     11  C          7.0030   -0.5620   -2.0870 C.2     1  UNL1        0.0000
     12  C          8.3350   -0.4060   -2.3950 C.2     1  UNL1        0.0000
@<TRIPOS>BOND
     1    12    11    2
     2    12    10    1
     3    11     9    1
     4    10     8    2
     5     9     7    2
     6     8     7    1
     7     7     6    1
     8     1     6    1
     9     1     2    1
    10     2     3    2
    11     2     4    1
    12     4     5    1
