@<TRIPOS>MOLECULE
/home/cewinharhar/GITHUB/reincatalyze/data/processed/docking_pred/2023-Apr-25-2248_maxeplen10_maxtrainstep1000_exh16_gamma099_lrac3e-4_lrcr1e-3/42234a6127519c7502e2f6bf4b16ee47cf11c698_ligand_2.pdbqt
 12 12 0 0 0
SMALL
GASTEIGER

@<TRIPOS>ATOM
      1  C          8.3720   -0.5900   -2.2010 C.3     1  UNL1        0.1270
      2  C          8.3770   -1.8790   -2.9160 C.2     1  UNL1        0.3030
      3  O          7.2780   -2.4000   -3.2470 O.2     1  UNL1       -0.2520
      4  O          9.5660   -2.5470   -3.2440 O.3     1  UNL1       -0.4810
      5  H          9.6750   -3.5090   -2.9520 H       1  UNL1        0.2960
      6  C          6.9880    0.0330   -2.1510 C.3     1  UNL1        0.0470
      7  C          6.4700    0.0680   -0.7590 C.2     1  UNL1       -0.0470
      8  C          5.8250    1.1960   -0.2710 C.2     1  UNL1        0.0040
      9  C          6.6040   -0.9940    0.1170 C.2     1  UNL1        0.0040
     10  C          5.3430    1.2630    1.0160 C.2     1  UNL1        0.0000
     11  C          6.1210   -0.9250    1.4060 C.2     1  UNL1        0.0000
     12  C          5.4840    0.1980    1.8820 C.2     1  UNL1        0.0000
@<TRIPOS>BOND
     1     3     2    2
     2     4     5    1
     3     4     2    1
     4     2     1    1
     5     1     6    1
     6     6     7    1
     7     7     8    2
     8     7     9    1
     9     8    10    1
    10     9    11    2
    11    10    12    2
    12    11    12    1
