@<TRIPOS>MOLECULE
/home/cewinharhar/GITHUB/reincatalyze/data/processed/docking_pred/2023-Apr-25-2248_maxeplen10_maxtrainstep1000_exh16_gamma099_lrac3e-4_lrcr1e-3/42234a6127519c7502e2f6bf4b16ee47cf11c698_ligand_2.pdbqt
 12 12 0 0 0
SMALL
GASTEIGER

@<TRIPOS>ATOM
      1  C          8.1650   -0.1820   -2.7570 C.3     1  UNL1        0.1270
      2  C          8.3630   -1.6200   -3.0080 C.2     1  UNL1        0.3030
      3  O          9.5140   -2.1150   -2.8620 O.2     1  UNL1       -0.2520
      4  O          7.3130   -2.4620   -3.4030 O.3     1  UNL1       -0.4810
      5  H          6.4170   -2.0470   -3.6200 H       1  UNL1        0.2960
      6  C          8.7360    0.2510   -1.4180 C.3     1  UNL1        0.0470
      7  C          7.6900    0.2310   -0.3620 C.2     1  UNL1       -0.0470
      8  C          6.5530    1.0180   -0.4780 C.2     1  UNL1        0.0040
      9  C          7.7910   -0.5470    0.7770 C.2     1  UNL1        0.0040
     10  C          5.5720    1.0300    0.4870 C.2     1  UNL1        0.0000
     11  C          6.8070   -0.5330    1.7420 C.2     1  UNL1        0.0000
     12  C          5.6820    0.2510    1.6210 C.2     1  UNL1        0.0000
@<TRIPOS>BOND
     1     5     4    1
     2     4     2    1
     3     2     3    2
     4     2     1    1
     5     1     6    1
     6     6     7    1
     7     8     7    2
     8     8    10    1
     9     7     9    1
    10    10    12    2
    11     9    11    2
    12    12    11    1
