@<TRIPOS>MOLECULE
/home/cewinharhar/GITHUB/reincatalyze/data/processed/docking_pred/2023-Apr-25-2248_maxeplen10_maxtrainstep1000_exh16_gamma099_lrac3e-4_lrcr1e-3/4295960a5818388fac6ce93a10a8a6662c8ec52f_ligand_2.pdbqt
 12 12 0 0 0
SMALL
GASTEIGER

@<TRIPOS>ATOM
      1  C          5.0440    1.6890    0.7110 C.3     1  UNL1        0.1270
      2  C          4.5630    1.0260    1.9360 C.2     1  UNL1        0.3030
      3  O          5.2920    0.1580    2.4880 O.2     1  UNL1       -0.2520
      4  O          3.3200    1.3280    2.5110 O.3     1  UNL1       -0.4810
      5  H          2.8420    0.6080    3.0360 H       1  UNL1        0.2960
      6  C          6.5510    1.8700    0.7100 C.3     1  UNL1        0.0470
      7  C          7.1840    1.0650   -0.3670 C.2     1  UNL1       -0.0470
      8  C          6.4390    0.1480   -1.0950 C.2     1  UNL1        0.0040
      9  C          8.5230    1.1730   -0.6940 C.2     1  UNL1        0.0040
     10  C          6.9970   -0.6200   -2.0910 C.2     1  UNL1        0.0000
     11  C          9.0810    0.4030   -1.6920 C.2     1  UNL1        0.0000
     12  C          8.3360   -0.5060   -2.4090 C.2     1  UNL1        0.0000
@<TRIPOS>BOND
     1    12    10    2
     2    12    11    1
     3    10     8    1
     4    11     9    2
     5     8     7    2
     6     9     7    1
     7     7     6    1
     8     6     1    1
     9     1     2    1
    10     2     3    2
    11     2     4    1
    12     4     5    1
