@<TRIPOS>MOLECULE
/home/cewinharhar/GITHUB/reincatalyze/data/processed/docking_pred/2023-Apr-25-2248_maxeplen10_maxtrainstep1000_exh16_gamma099_lrac3e-4_lrcr1e-3/4295960a5818388fac6ce93a10a8a6662c8ec52f_ligand_2.pdbqt
 12 12 0 0 0
SMALL
GASTEIGER

@<TRIPOS>ATOM
      1  C          8.4090   -0.6460   -2.1310 C.3     1  UNL1        0.1270
      2  C          8.4060   -1.9120   -2.8850 C.2     1  UNL1        0.3030
      3  O          7.3030   -2.4180   -3.2280 O.2     1  UNL1       -0.2520
      4  O          9.5900   -2.5760   -3.2370 O.3     1  UNL1       -0.4810
      5  H          9.6220   -3.5830   -3.1550 H       1  UNL1        0.2960
      6  C          7.0500    0.0310   -2.1400 C.3     1  UNL1        0.0470
      7  C          6.4940    0.1260   -0.7650 C.2     1  UNL1       -0.0470
      8  C          6.6360   -0.9240    0.1310 C.2     1  UNL1        0.0040
      9  C          5.8080    1.2380   -0.3110 C.2     1  UNL1        0.0040
     10  C          6.1230   -0.8710    1.4060 C.2     1  UNL1        0.0000
     11  C          5.2950    1.2900    0.9680 C.2     1  UNL1        0.0000
     12  C          5.4390    0.2430    1.8500 C.2     1  UNL1        0.0000
@<TRIPOS>BOND
     1     4     5    1
     2     4     2    1
     3     3     2    2
     4     2     1    1
     5     6     1    1
     6     6     7    1
     7     7     9    2
     8     7     8    1
     9     9    11    1
    10     8    10    2
    11    11    12    2
    12    10    12    1
