@<TRIPOS>MOLECULE
/home/cewinharhar/GITHUB/reincatalyze/data/processed/docking_pred/2023-Apr-25-2248_maxeplen10_maxtrainstep1000_exh16_gamma099_lrac3e-4_lrcr1e-3/4295960a5818388fac6ce93a10a8a6662c8ec52f_ligand_2.pdbqt
 12 12 0 0 0
SMALL
GASTEIGER

@<TRIPOS>ATOM
      1  C          8.2220   -1.6180    1.0480 C.3     1  UNL1        0.1270
      2  C          8.5210   -2.8350    0.2720 C.2     1  UNL1        0.3030
      3  O          9.1670   -3.7680    0.8230 O.2     1  UNL1       -0.2520
      4  O          8.1110   -2.9940   -1.0590 O.3     1  UNL1       -0.4810
      5  H          7.1410   -3.2110   -1.2430 H       1  UNL1        0.2960
      6  C          6.7400   -1.4770    1.3440 C.3     1  UNL1        0.0470
      7  C          6.2030   -0.2090    0.7840 C.2     1  UNL1       -0.0470
      8  C          5.4190    0.6320    1.5610 C.2     1  UNL1        0.0040
      9  C          6.4400    0.1930   -0.5180 C.2     1  UNL1        0.0040
     10  C          4.8980    1.8060    1.0680 C.2     1  UNL1        0.0000
     11  C          5.9180    1.3710   -1.0090 C.2     1  UNL1        0.0000
     12  C          5.1390    2.1990   -0.2330 C.2     1  UNL1        0.0000
@<TRIPOS>BOND
     1     5     4    1
     2     4     2    1
     3    11     9    1
     4    11    12    2
     5     9     7    2
     6    12    10    1
     7     2     3    2
     8     2     1    1
     9     7     6    1
    10     7     8    1
    11     1     6    1
    12    10     8    2
