@<TRIPOS>MOLECULE
/home/cewinharhar/GITHUB/reincatalyze/data/processed/docking_pred/2023-Apr-25-2248_maxeplen10_maxtrainstep1000_exh16_gamma099_lrac3e-4_lrcr1e-3/4295960a5818388fac6ce93a10a8a6662c8ec52f_ligand_2.pdbqt
 12 12 0 0 0
SMALL
GASTEIGER

@<TRIPOS>ATOM
      1  C          8.4190   -0.6250   -2.1680 C.3     1  UNL1        0.1270
      2  C          8.4160   -1.9060   -2.8960 C.2     1  UNL1        0.3030
      3  O          7.3130   -2.4260   -3.2160 O.2     1  UNL1       -0.2520
      4  O          9.6010   -2.5690   -3.2480 O.3     1  UNL1       -0.4810
      5  H         10.1470   -2.2060   -4.0170 H       1  UNL1        0.2960
      6  C          7.0480    0.0260   -2.1470 C.3     1  UNL1        0.0470
      7  C          6.5030    0.0770   -0.7650 C.2     1  UNL1       -0.0470
      8  C          5.8480    1.2100   -0.3040 C.2     1  UNL1        0.0040
      9  C          6.6240   -0.9730    0.1270 C.2     1  UNL1        0.0040
     10  C          5.3420    1.2920    0.9730 C.2     1  UNL1        0.0000
     11  C          6.1160   -0.8900    1.4050 C.2     1  UNL1        0.0000
     12  C          5.4690    0.2380    1.8560 C.2     1  UNL1        0.0000
@<TRIPOS>BOND
     1     5     4    1
     2     4     2    1
     3     3     2    2
     4     2     1    1
     5     1     6    1
     6     6     7    1
     7     7     8    2
     8     7     9    1
     9     8    10    1
    10     9    11    2
    11    10    12    2
    12    11    12    1
