@<TRIPOS>MOLECULE
/home/cewinharhar/GITHUB/reincatalyze/data/processed/docking_pred/2023-Apr-25-2248_maxeplen10_maxtrainstep1000_exh16_gamma099_lrac3e-4_lrcr1e-3/4295960a5818388fac6ce93a10a8a6662c8ec52f_ligand_2.pdbqt
 12 12 0 0 0
SMALL
GASTEIGER

@<TRIPOS>ATOM
      1  C          8.5420    0.6620   -1.6200 C.3     1  UNL1        0.1270
      2  C          9.6980    0.2720   -0.7940 C.2     1  UNL1        0.3030
      3  O          9.5200   -0.5070    0.1810 O.2     1  UNL1       -0.2520
      4  O         10.9950    0.7380   -1.0560 O.3     1  UNL1       -0.4810
      5  H         11.1250    1.4150   -1.7960 H       1  UNL1        0.2960
      6  C          7.3530   -0.2600   -1.4140 C.3     1  UNL1        0.0470
      7  C          6.4510    0.2620   -0.3540 C.2     1  UNL1       -0.0470
      8  C          5.8110    1.4830   -0.5080 C.2     1  UNL1        0.0040
      9  C          6.2090   -0.4190    0.8250 C.2     1  UNL1        0.0040
     10  C          4.9790    1.9980    0.4590 C.2     1  UNL1        0.0000
     11  C          5.3750    0.0980    1.7920 C.2     1  UNL1        0.0000
     12  C          4.7450    1.3110    1.6330 C.2     1  UNL1        0.0000
@<TRIPOS>BOND
     1     5     4    1
     2     1     6    1
     3     1     2    1
     4     6     7    1
     5     4     2    1
     6     2     3    2
     7     8     7    2
     8     8    10    1
     9     7     9    1
    10    10    12    2
    11     9    11    2
    12    12    11    1
