@<TRIPOS>MOLECULE
/home/cewinharhar/GITHUB/reincatalyze/data/processed/docking_pred/2023-Apr-25-2248_maxeplen10_maxtrainstep1000_exh16_gamma099_lrac3e-4_lrcr1e-3/437598aa9d4ddbb457dda5082e5f4820e6dbe55d_ligand_2.pdbqt
 12 12 0 0 0
SMALL
GASTEIGER

@<TRIPOS>ATOM
      1  C          8.3380   -1.0180   -1.7290 C.3     1  UNL1        0.1270
      2  C          8.4040   -2.0350   -2.7940 C.2     1  UNL1        0.3030
      3  O          9.5260   -2.5110   -3.1170 O.2     1  UNL1       -0.2520
      4  O          7.2590   -2.4940   -3.4610 O.3     1  UNL1       -0.4810
      5  H          6.4100   -1.9490   -3.3960 H       1  UNL1        0.2960
      6  C          7.1950   -0.0410   -1.9400 C.3     1  UNL1        0.0470
      7  C          6.4790    0.2240   -0.6640 C.2     1  UNL1       -0.0470
      8  C          6.4750   -0.7180    0.3540 C.2     1  UNL1        0.0040
      9  C          5.7830    1.3950   -0.4260 C.2     1  UNL1        0.0040
     10  C          5.8140   -0.5070    1.5420 C.2     1  UNL1        0.0000
     11  C          5.1210    1.6050    0.7650 C.2     1  UNL1        0.0000
     12  C          5.1210    0.6640    1.7700 C.2     1  UNL1        0.0000
@<TRIPOS>BOND
     1     4     5    1
     2     4     2    1
     3     3     2    2
     4     2     1    1
     5     6     1    1
     6     6     7    1
     7     7     9    2
     8     7     8    1
     9     9    11    1
    10     8    10    2
    11    11    12    2
    12    10    12    1
