@<TRIPOS>MOLECULE
/home/cewinharhar/GITHUB/reincatalyze/data/processed/docking_pred/2023-Apr-25-2248_maxeplen10_maxtrainstep1000_exh16_gamma099_lrac3e-4_lrcr1e-3/437598aa9d4ddbb457dda5082e5f4820e6dbe55d_ligand_2.pdbqt
 12 12 0 0 0
SMALL
GASTEIGER

@<TRIPOS>ATOM
      1  C          8.4300   -0.6600   -2.1460 C.3     1  UNL1        0.1270
      2  C          8.4540   -1.9250   -2.9010 C.2     1  UNL1        0.3030
      3  O          9.5560   -2.5120   -3.0770 O.2     1  UNL1       -0.2520
      4  O          7.2910   -2.5030   -3.4300 O.3     1  UNL1       -0.4810
      5  H          6.8430   -2.0530   -4.2160 H       1  UNL1        0.2960
      6  C          7.0550   -0.0150   -2.1520 C.3     1  UNL1        0.0470
      7  C          6.4990    0.0660   -0.7770 C.2     1  UNL1       -0.0470
      8  C          5.8320    1.2060   -0.3480 C.2     1  UNL1        0.0040
      9  C          6.6180   -0.9620    0.1400 C.2     1  UNL1        0.0040
     10  C          5.3150    1.3150    0.9220 C.2     1  UNL1        0.0000
     11  C          6.0980   -0.8510    1.4120 C.2     1  UNL1        0.0000
     12  C          5.4400    0.2830    1.8300 C.2     1  UNL1        0.0000
@<TRIPOS>BOND
     1     5     4    1
     2     4     2    1
     3     3     2    2
     4     2     1    1
     5     6     1    1
     6     6     7    1
     7     7     8    2
     8     7     9    1
     9     8    10    1
    10     9    11    2
    11    10    12    2
    12    11    12    1
