@<TRIPOS>MOLECULE
/home/cewinharhar/GITHUB/reincatalyze/data/processed/docking_pred/2023-Apr-25-2248_maxeplen10_maxtrainstep1000_exh16_gamma099_lrac3e-4_lrcr1e-3/437598aa9d4ddbb457dda5082e5f4820e6dbe55d_ligand_2.pdbqt
 12 12 0 0 0
SMALL
GASTEIGER

@<TRIPOS>ATOM
      1  C          8.2170   -1.6850    1.1260 C.3     1  UNL1        0.1270
      2  C          8.5260   -2.8630    0.2970 C.2     1  UNL1        0.3030
      3  O          9.1980   -3.8050    0.7980 O.2     1  UNL1       -0.2520
      4  O          8.0970   -2.9750   -1.0330 O.3     1  UNL1       -0.4810
      5  H          7.1860   -3.3750   -1.2150 H       1  UNL1        0.2960
      6  C          6.7330   -1.5640    1.4220 C.3     1  UNL1        0.0470
      7  C          6.1830   -0.2950    0.8780 C.2     1  UNL1       -0.0470
      8  C          6.4580    0.0950   -0.4250 C.2     1  UNL1        0.0040
      9  C          5.3910    0.5580    1.6240 C.2     1  UNL1        0.0040
     10  C          5.9730    1.2680   -0.9550 C.2     1  UNL1        0.0000
     11  C          4.9050    1.7330    1.0920 C.2     1  UNL1        0.0000
     12  C          5.1840    2.1140   -0.2010 C.2     1  UNL1        0.0000
@<TRIPOS>BOND
     1     5     4    1
     2     4     2    1
     3    10     8    1
     4    10    12    2
     5     8     7    2
     6    12    11    1
     7     2     3    2
     8     2     1    1
     9     7     6    1
    10     7     9    1
    11    11     9    2
    12     1     6    1
