@<TRIPOS>MOLECULE
/home/cewinharhar/GITHUB/reincatalyze/data/processed/docking_pred/2023-Apr-25-2248_maxeplen10_maxtrainstep1000_exh16_gamma099_lrac3e-4_lrcr1e-3/437598aa9d4ddbb457dda5082e5f4820e6dbe55d_ligand_2.pdbqt
 12 12 0 0 0
SMALL
GASTEIGER

@<TRIPOS>ATOM
      1  C          4.9990    1.7950    0.7360 C.3     1  UNL1        0.1270
      2  C          4.4670    1.1150    1.9300 C.2     1  UNL1        0.3030
      3  O          5.1530    0.2060    2.4740 O.2     1  UNL1       -0.2520
      4  O          3.2230    1.4440    2.4870 O.3     1  UNL1       -0.4810
      5  H          2.9850    2.4210    2.5940 H       1  UNL1        0.2960
      6  C          6.5120    1.9240    0.7750 C.3     1  UNL1        0.0470
      7  C          7.1410    1.1360   -0.3170 C.2     1  UNL1       -0.0470
      8  C          6.3880    0.2560   -1.0800 C.2     1  UNL1        0.0040
      9  C          8.4870    1.2240   -0.6230 C.2     1  UNL1        0.0040
     10  C          6.9430   -0.4950   -2.0900 C.2     1  UNL1        0.0000
     11  C          9.0420    0.4720   -1.6360 C.2     1  UNL1        0.0000
     12  C          8.2880   -0.4010   -2.3870 C.2     1  UNL1        0.0000
@<TRIPOS>BOND
     1    12    10    2
     2    12    11    1
     3    10     8    1
     4    11     9    2
     5     8     7    2
     6     9     7    1
     7     7     6    1
     8     1     6    1
     9     1     2    1
    10     2     3    2
    11     2     4    1
    12     4     5    1
