MODEL 1
REMARK VINA RESULT:      -7.3      0.000      0.000
REMARK SMILES O=C(O)CCc1ccccc1
REMARK SMILES IDX 4 1 2 2 1 3 3 4 5 6 6 7 7 8 11 9 8 10 10 11 9 12
REMARK H PARENT 3 5
REMARK Flexibility Score: inf
ROOT
ATOM      1  C   UNL     1       8.430  -0.660  -2.146  1.00  0.00     0.127 C 
ENDROOT
BRANCH   1   2
ATOM      2  C   UNL     1       8.454  -1.925  -2.901  1.00  0.00     0.303 C 
ATOM      3  O   UNL     1       9.556  -2.512  -3.077  1.00  0.00    -0.252 OA
BRANCH   2   4
ATOM      4  O   UNL     1       7.291  -2.503  -3.430  1.00  0.00    -0.481 OA
ATOM      5  H   UNL     1       6.843  -2.053  -4.216  1.00  0.00     0.296 HD
ENDBRANCH   2   4
ENDBRANCH   1   2
BRANCH   1   6
ATOM      6  C   UNL     1       7.055  -0.015  -2.152  1.00  0.00     0.047 C 
BRANCH   6   7
ATOM      7  C   UNL     1       6.499   0.066  -0.777  1.00  0.00    -0.047 A 
ATOM      8  C   UNL     1       5.832   1.206  -0.348  1.00  0.00     0.004 A 
ATOM      9  C   UNL     1       6.618  -0.962   0.140  1.00  0.00     0.004 A 
ATOM     10  C   UNL     1       5.315   1.315   0.922  1.00  0.00     0.000 A 
ATOM     11  C   UNL     1       6.098  -0.851   1.412  1.00  0.00     0.000 A 
ATOM     12  C   UNL     1       5.440   0.283   1.830  1.00  0.00     0.000 A 
ENDBRANCH   6   7
ENDBRANCH   1   6
TORSDOF 4
ENDMDL
MODEL 2
REMARK VINA RESULT:      -7.3      0.334      1.453
REMARK SMILES O=C(O)CCc1ccccc1
REMARK SMILES IDX 4 1 2 2 1 3 3 4 5 6 6 7 7 8 11 9 8 10 10 11 9 12
REMARK H PARENT 3 5
REMARK Flexibility Score: inf
ROOT
ATOM      1  C   UNL     1       8.338  -1.018  -1.729  1.00  0.00     0.127 C 
ENDROOT
BRANCH   1   2
ATOM      2  C   UNL     1       8.404  -2.035  -2.794  1.00  0.00     0.303 C 
ATOM      3  O   UNL     1       9.526  -2.511  -3.117  1.00  0.00    -0.252 OA
BRANCH   2   4
ATOM      4  O   UNL     1       7.259  -2.494  -3.461  1.00  0.00    -0.481 OA
ATOM      5  H   UNL     1       6.410  -1.949  -3.396  1.00  0.00     0.296 HD
ENDBRANCH   2   4
ENDBRANCH   1   2
BRANCH   1   6
ATOM      6  C   UNL     1       7.195  -0.041  -1.940  1.00  0.00     0.047 C 
BRANCH   6   7
ATOM      7  C   UNL     1       6.479   0.224  -0.664  1.00  0.00    -0.047 A 
ATOM      8  C   UNL     1       6.475  -0.718   0.354  1.00  0.00     0.004 A 
ATOM      9  C   UNL     1       5.783   1.395  -0.426  1.00  0.00     0.004 A 
ATOM     10  C   UNL     1       5.814  -0.507   1.542  1.00  0.00     0.000 A 
ATOM     11  C   UNL     1       5.121   1.605   0.765  1.00  0.00     0.000 A 
ATOM     12  C   UNL     1       5.121   0.664   1.770  1.00  0.00     0.000 A 
ENDBRANCH   6   7
ENDBRANCH   1   6
TORSDOF 4
ENDMDL
MODEL 3
REMARK VINA RESULT:      -7.2      0.102      1.723
REMARK SMILES O=C(O)CCc1ccccc1
REMARK SMILES IDX 4 1 2 2 1 3 3 4 5 6 6 7 7 8 11 9 8 10 10 11 9 12
REMARK H PARENT 3 5
REMARK Flexibility Score: inf
ROOT
ATOM      1  C   UNL     1       8.376  -0.621  -2.156  1.00  0.00     0.127 C 
ENDROOT
BRANCH   1   2
ATOM      2  C   UNL     1       8.397  -1.899  -2.890  1.00  0.00     0.303 C 
ATOM      3  O   UNL     1       7.305  -2.430  -3.226  1.00  0.00    -0.252 OA
BRANCH   2   4
ATOM      4  O   UNL     1       9.594  -2.546  -3.230  1.00  0.00    -0.481 OA
ATOM      5  H   UNL     1       9.645  -3.551  -3.132  1.00  0.00     0.296 HD
ENDBRANCH   2   4
ENDBRANCH   1   2
BRANCH   1   6
ATOM      6  C   UNL     1       6.995   0.010  -2.143  1.00  0.00     0.047 C 
BRANCH   6   7
ATOM      7  C   UNL     1       6.465   0.103  -0.757  1.00  0.00    -0.047 A 
ATOM      8  C   UNL     1       6.604  -0.958   0.127  1.00  0.00     0.004 A 
ATOM      9  C   UNL     1       5.809   1.223  -0.280  1.00  0.00     0.004 A 
ATOM     10  C   UNL     1       6.116  -0.907   1.412  1.00  0.00     0.000 A 
ATOM     11  C   UNL     1       5.320   1.273   1.007  1.00  0.00     0.000 A 
ATOM     12  C   UNL     1       5.461   0.216   1.878  1.00  0.00     0.000 A 
ENDBRANCH   6   7
ENDBRANCH   1   6
TORSDOF 4
ENDMDL
MODEL 4
REMARK VINA RESULT:      -6.8      3.401      5.093
REMARK SMILES O=C(O)CCc1ccccc1
REMARK SMILES IDX 4 1 2 2 1 3 3 4 5 6 6 7 7 8 11 9 8 10 10 11 9 12
REMARK H PARENT 3 5
REMARK Flexibility Score: inf
ROOT
ATOM      1  C   UNL     1       4.999   1.795   0.736  1.00  0.00     0.127 C 
ENDROOT
BRANCH   1   2
ATOM      2  C   UNL     1       4.467   1.115   1.930  1.00  0.00     0.303 C 
ATOM      3  O   UNL     1       5.153   0.206   2.474  1.00  0.00    -0.252 OA
BRANCH   2   4
ATOM      4  O   UNL     1       3.223   1.444   2.487  1.00  0.00    -0.481 OA
ATOM      5  H   UNL     1       2.985   2.421   2.594  1.00  0.00     0.296 HD
ENDBRANCH   2   4
ENDBRANCH   1   2
BRANCH   1   6
ATOM      6  C   UNL     1       6.512   1.924   0.775  1.00  0.00     0.047 C 
BRANCH   6   7
ATOM      7  C   UNL     1       7.141   1.136  -0.317  1.00  0.00    -0.047 A 
ATOM      8  C   UNL     1       6.388   0.256  -1.080  1.00  0.00     0.004 A 
ATOM      9  C   UNL     1       8.487   1.224  -0.623  1.00  0.00     0.004 A 
ATOM     10  C   UNL     1       6.943  -0.495  -2.090  1.00  0.00     0.000 A 
ATOM     11  C   UNL     1       9.042   0.472  -1.636  1.00  0.00     0.000 A 
ATOM     12  C   UNL     1       8.288  -0.401  -2.387  1.00  0.00     0.000 A 
ENDBRANCH   6   7
ENDBRANCH   1   6
TORSDOF 4
ENDMDL
MODEL 5
REMARK VINA RESULT:      -6.6      1.870      2.891
REMARK SMILES O=C(O)CCc1ccccc1
REMARK SMILES IDX 4 1 2 2 1 3 3 4 5 6 6 7 7 8 11 9 8 10 10 11 9 12
REMARK H PARENT 3 5
REMARK Flexibility Score: inf
ROOT
ATOM      1  C   UNL     1       8.217  -1.685   1.126  1.00  0.00     0.127 C 
ENDROOT
BRANCH   1   2
ATOM      2  C   UNL     1       8.526  -2.863   0.297  1.00  0.00     0.303 C 
ATOM      3  O   UNL     1       9.198  -3.805   0.798  1.00  0.00    -0.252 OA
BRANCH   2   4
ATOM      4  O   UNL     1       8.097  -2.975  -1.033  1.00  0.00    -0.481 OA
ATOM      5  H   UNL     1       7.186  -3.375  -1.215  1.00  0.00     0.296 HD
ENDBRANCH   2   4
ENDBRANCH   1   2
BRANCH   1   6
ATOM      6  C   UNL     1       6.733  -1.564   1.422  1.00  0.00     0.047 C 
BRANCH   6   7
ATOM      7  C   UNL     1       6.183  -0.295   0.878  1.00  0.00    -0.047 A 
ATOM      8  C   UNL     1       6.458   0.095  -0.425  1.00  0.00     0.004 A 
ATOM      9  C   UNL     1       5.391   0.558   1.624  1.00  0.00     0.004 A 
ATOM     10  C   UNL     1       5.973   1.268  -0.955  1.00  0.00     0.000 A 
ATOM     11  C   UNL     1       4.905   1.733   1.092  1.00  0.00     0.000 A 
ATOM     12  C   UNL     1       5.184   2.114  -0.201  1.00  0.00     0.000 A 
ENDBRANCH   6   7
ENDBRANCH   1   6
TORSDOF 4
ENDMDL
