@<TRIPOS>MOLECULE
/home/cewinharhar/GITHUB/reincatalyze/data/processed/docking_pred/2023-Apr-25-2248_maxeplen10_maxtrainstep1000_exh16_gamma099_lrac3e-4_lrcr1e-3/437598aa9d4ddbb457dda5082e5f4820e6dbe55d_ligand_2.pdbqt
 12 12 0 0 0
SMALL
GASTEIGER

@<TRIPOS>ATOM
      1  C          8.3760   -0.6210   -2.1560 C.3     1  UNL1        0.1270
      2  C          8.3970   -1.8990   -2.8900 C.2     1  UNL1        0.3030
      3  O          7.3050   -2.4300   -3.2260 O.2     1  UNL1       -0.2520
      4  O          9.5940   -2.5460   -3.2300 O.3     1  UNL1       -0.4810
      5  H          9.6450   -3.5510   -3.1320 H       1  UNL1        0.2960
      6  C          6.9950    0.0100   -2.1430 C.3     1  UNL1        0.0470
      7  C          6.4650    0.1030   -0.7570 C.2     1  UNL1       -0.0470
      8  C          6.6040   -0.9580    0.1270 C.2     1  UNL1        0.0040
      9  C          5.8090    1.2230   -0.2800 C.2     1  UNL1        0.0040
     10  C          6.1160   -0.9070    1.4120 C.2     1  UNL1        0.0000
     11  C          5.3200    1.2730    1.0070 C.2     1  UNL1        0.0000
     12  C          5.4610    0.2160    1.8780 C.2     1  UNL1        0.0000
@<TRIPOS>BOND
     1     4     5    1
     2     4     2    1
     3     3     2    2
     4     2     1    1
     5     1     6    1
     6     6     7    1
     7     7     9    2
     8     7     8    1
     9     9    11    1
    10     8    10    2
    11    11    12    2
    12    10    12    1
