@<TRIPOS>MOLECULE
/home/cewinharhar/GITHUB/reincatalyze/data/processed/docking_pred/2023-Apr-25-2248_maxeplen10_maxtrainstep1000_exh16_gamma099_lrac3e-4_lrcr1e-3/43f74fb3996e866f8c2ebaeff785616509de483e_ligand_2.pdbqt
 12 12 0 0 0
SMALL
GASTEIGER

@<TRIPOS>ATOM
      1  C          5.0060    1.7430    0.7030 C.3     1  UNL1        0.1270
      2  C          4.4780    1.0980    1.9180 C.2     1  UNL1        0.3030
      3  O          5.1600    0.1970    2.4790 O.2     1  UNL1       -0.2520
      4  O          3.2410    1.4510    2.4760 O.3     1  UNL1       -0.4810
      5  H          2.8730    0.8900    3.2320 H       1  UNL1        0.2960
      6  C          6.5170    1.8890    0.7420 C.3     1  UNL1        0.0470
      7  C          7.1570    1.0930   -0.3380 C.2     1  UNL1       -0.0470
      8  C          6.4210    0.1680   -1.0660 C.2     1  UNL1        0.0040
      9  C          8.4940    1.2160   -0.6670 C.2     1  UNL1        0.0040
     10  C          6.9860   -0.5910   -2.0640 C.2     1  UNL1        0.0000
     11  C          9.0590    0.4550   -1.6680 C.2     1  UNL1        0.0000
     12  C          8.3230   -0.4610   -2.3840 C.2     1  UNL1        0.0000
@<TRIPOS>BOND
     1    12    10    2
     2    12    11    1
     3    10     8    1
     4    11     9    2
     5     8     7    2
     6     9     7    1
     7     7     6    1
     8     1     6    1
     9     1     2    1
    10     2     4    1
    11     2     3    2
    12     4     5    1
