@<TRIPOS>MOLECULE
/home/cewinharhar/GITHUB/reincatalyze/data/processed/docking_pred/2023-Apr-25-2248_maxeplen10_maxtrainstep1000_exh16_gamma099_lrac3e-4_lrcr1e-3/43f74fb3996e866f8c2ebaeff785616509de483e_ligand_2.pdbqt
 12 12 0 0 0
SMALL
GASTEIGER

@<TRIPOS>ATOM
      1  C          8.2940   -0.8270   -1.9900 C.3     1  UNL1        0.1270
      2  C          8.3880   -1.9990   -2.8780 C.2     1  UNL1        0.3030
      3  O          9.5140   -2.5340   -3.0690 O.2     1  UNL1       -0.2520
      4  O          7.2650   -2.5430   -3.5190 O.3     1  UNL1       -0.4810
      5  H          6.7240   -3.2460   -3.0330 H       1  UNL1        0.2960
      6  C          7.8760   -1.2070   -0.5800 C.3     1  UNL1        0.0470
      7  C          6.8750   -0.2480   -0.0450 C.2     1  UNL1       -0.0470
      8  C          6.3690   -0.3960    1.2390 C.2     1  UNL1        0.0040
      9  C          6.3930    0.8200   -0.7800 C.2     1  UNL1        0.0040
     10  C          5.4340    0.4690    1.7590 C.2     1  UNL1        0.0000
     11  C          5.4570    1.6850   -0.2570 C.2     1  UNL1        0.0000
     12  C          4.9580    1.5310    1.0160 C.2     1  UNL1        0.0000
@<TRIPOS>BOND
     1     4     5    1
     2     4     2    1
     3     3     2    2
     4     2     1    1
     5     1     6    1
     6     9    11    1
     7     9     7    2
     8     6     7    1
     9    11    12    2
    10     7     8    1
    11    12    10    1
    12     8    10    2
