@<TRIPOS>MOLECULE
/home/cewinharhar/GITHUB/reincatalyze/data/processed/docking_pred/2023-Apr-25-2248_maxeplen10_maxtrainstep1000_exh16_gamma099_lrac3e-4_lrcr1e-3/43f74fb3996e866f8c2ebaeff785616509de483e_ligand_2.pdbqt
 12 12 0 0 0
SMALL
GASTEIGER

@<TRIPOS>ATOM
      1  C          8.4270   -0.6200   -2.1930 C.3     1  UNL1        0.1270
      2  C          8.4480   -1.9070   -2.9110 C.2     1  UNL1        0.3030
      3  O          9.5490   -2.5010   -3.0700 O.2     1  UNL1       -0.2520
      4  O          7.2840   -2.4960   -3.4250 O.3     1  UNL1       -0.4810
      5  H          7.0990   -3.4660   -3.2110 H       1  UNL1        0.2960
      6  C          7.0460    0.0100   -2.1860 C.3     1  UNL1        0.0470
      7  C          6.5120    0.1090   -0.8030 C.2     1  UNL1       -0.0470
      8  C          6.6220   -0.9590    0.0760 C.2     1  UNL1        0.0040
      9  C          5.8790    1.2410   -0.3240 C.2     1  UNL1        0.0040
     10  C          6.1290   -0.9030    1.3590 C.2     1  UNL1        0.0000
     11  C          5.3850    1.2960    0.9620 C.2     1  UNL1        0.0000
     12  C          5.4970    0.2310    1.8280 C.2     1  UNL1        0.0000
@<TRIPOS>BOND
     1     4     5    1
     2     4     2    1
     3     3     2    2
     4     2     1    1
     5     1     6    1
     6     6     7    1
     7     7     9    2
     8     7     8    1
     9     9    11    1
    10     8    10    2
    11    11    12    2
    12    10    12    1
