@<TRIPOS>MOLECULE
/home/cewinharhar/GITHUB/reincatalyze/data/processed/docking_pred/2023-Apr-25-2248_maxeplen10_maxtrainstep1000_exh16_gamma099_lrac3e-4_lrcr1e-3/43f74fb3996e866f8c2ebaeff785616509de483e_ligand_2.pdbqt
 12 12 0 0 0
SMALL
GASTEIGER

@<TRIPOS>ATOM
      1  C          8.4020   -0.6680   -2.1050 C.3     1  UNL1        0.1270
      2  C          8.3970   -1.9210   -2.8800 C.2     1  UNL1        0.3030
      3  O          7.2930   -2.4150   -3.2390 O.2     1  UNL1       -0.2520
      4  O          9.5790   -2.5850   -3.2360 O.3     1  UNL1       -0.4810
      5  H         10.3000   -2.0650   -3.7180 H       1  UNL1        0.2960
      6  C          7.0480    0.0210   -2.1190 C.3     1  UNL1        0.0470
      7  C          6.4760    0.0980   -0.7490 C.2     1  UNL1       -0.0470
      8  C          5.7870    1.2280   -0.3330 C.2     1  UNL1        0.0040
      9  C          6.6020   -0.9250    0.1730 C.2     1  UNL1        0.0040
     10  C          5.2550    1.3340    0.9320 C.2     1  UNL1        0.0000
     11  C          6.0680   -0.8170    1.4390 C.2     1  UNL1        0.0000
     12  C          5.3870    0.3080    1.8450 C.2     1  UNL1        0.0000
@<TRIPOS>BOND
     1     5     4    1
     2     3     2    2
     3     4     2    1
     4     2     1    1
     5     6     1    1
     6     6     7    1
     7     7     8    2
     8     7     9    1
     9     8    10    1
    10     9    11    2
    11    10    12    2
    12    11    12    1
