@<TRIPOS>MOLECULE
/home/cewinharhar/GITHUB/reincatalyze/data/processed/docking_pred/2023-Apr-25-2248_maxeplen10_maxtrainstep1000_exh16_gamma099_lrac3e-4_lrcr1e-3/43f74fb3996e866f8c2ebaeff785616509de483e_ligand_2.pdbqt
 12 12 0 0 0
SMALL
GASTEIGER

@<TRIPOS>ATOM
      1  C          8.2410    0.2390   -2.2360 C.3     1  UNL1        0.1270
      2  C          9.3590    0.3720   -1.2850 C.2     1  UNL1        0.3030
      3  O          9.4250   -0.4170   -0.3040 O.2     1  UNL1       -0.2520
      4  O         10.3560    1.3470   -1.4340 O.3     1  UNL1       -0.4810
      5  H         10.1370    2.1870   -1.9530 H       1  UNL1        0.2960
      6  C          7.0710   -0.5250   -1.6440 C.3     1  UNL1        0.0470
      7  C          6.3200    0.3170   -0.6760 C.2     1  UNL1       -0.0470
      8  C          6.1080   -0.1180    0.6250 C.2     1  UNL1        0.0040
      9  C          5.7930    1.5510   -1.0090 C.2     1  UNL1        0.0040
     10  C          5.4090    0.6330    1.5410 C.2     1  UNL1        0.0000
     11  C          5.0920    2.3020   -0.0900 C.2     1  UNL1        0.0000
     12  C          4.8850    1.8630    1.1980 C.2     1  UNL1        0.0000
@<TRIPOS>BOND
     1     1     6    1
     2     1     2    1
     3     5     4    1
     4     6     7    1
     5     4     2    1
     6     2     3    2
     7     9     7    2
     8     9    11    1
     9     7     8    1
    10    11    12    2
    11     8    10    2
    12    12    10    1
