MODEL 1
REMARK VINA RESULT:      -7.3      0.000      0.000
REMARK SMILES O=C(O)CCc1ccccc1
REMARK SMILES IDX 4 1 2 2 1 3 3 4 5 6 6 7 7 8 11 9 8 10 10 11 9 12
REMARK H PARENT 3 5
REMARK Flexibility Score: inf
ROOT
ATOM      1  C   UNL     1       8.427  -0.620  -2.193  1.00  0.00     0.127 C 
ENDROOT
BRANCH   1   2
ATOM      2  C   UNL     1       8.448  -1.907  -2.911  1.00  0.00     0.303 C 
ATOM      3  O   UNL     1       9.549  -2.501  -3.070  1.00  0.00    -0.252 OA
BRANCH   2   4
ATOM      4  O   UNL     1       7.284  -2.496  -3.425  1.00  0.00    -0.481 OA
ATOM      5  H   UNL     1       7.099  -3.466  -3.211  1.00  0.00     0.296 HD
ENDBRANCH   2   4
ENDBRANCH   1   2
BRANCH   1   6
ATOM      6  C   UNL     1       7.046   0.010  -2.186  1.00  0.00     0.047 C 
BRANCH   6   7
ATOM      7  C   UNL     1       6.512   0.109  -0.803  1.00  0.00    -0.047 A 
ATOM      8  C   UNL     1       6.622  -0.959   0.076  1.00  0.00     0.004 A 
ATOM      9  C   UNL     1       5.879   1.241  -0.324  1.00  0.00     0.004 A 
ATOM     10  C   UNL     1       6.129  -0.903   1.359  1.00  0.00     0.000 A 
ATOM     11  C   UNL     1       5.385   1.296   0.962  1.00  0.00     0.000 A 
ATOM     12  C   UNL     1       5.497   0.231   1.828  1.00  0.00     0.000 A 
ENDBRANCH   6   7
ENDBRANCH   1   6
TORSDOF 4
ENDMDL
MODEL 2
REMARK VINA RESULT:      -7.3      0.126      1.724
REMARK SMILES O=C(O)CCc1ccccc1
REMARK SMILES IDX 4 1 2 2 1 3 3 4 5 6 6 7 7 8 11 9 8 10 10 11 9 12
REMARK H PARENT 3 5
REMARK Flexibility Score: inf
ROOT
ATOM      1  C   UNL     1       8.402  -0.668  -2.105  1.00  0.00     0.127 C 
ENDROOT
BRANCH   1   2
ATOM      2  C   UNL     1       8.397  -1.921  -2.880  1.00  0.00     0.303 C 
ATOM      3  O   UNL     1       7.293  -2.415  -3.239  1.00  0.00    -0.252 OA
BRANCH   2   4
ATOM      4  O   UNL     1       9.579  -2.585  -3.236  1.00  0.00    -0.481 OA
ATOM      5  H   UNL     1      10.300  -2.065  -3.718  1.00  0.00     0.296 HD
ENDBRANCH   2   4
ENDBRANCH   1   2
BRANCH   1   6
ATOM      6  C   UNL     1       7.048   0.021  -2.119  1.00  0.00     0.047 C 
BRANCH   6   7
ATOM      7  C   UNL     1       6.476   0.098  -0.749  1.00  0.00    -0.047 A 
ATOM      8  C   UNL     1       5.787   1.228  -0.333  1.00  0.00     0.004 A 
ATOM      9  C   UNL     1       6.602  -0.925   0.173  1.00  0.00     0.004 A 
ATOM     10  C   UNL     1       5.255   1.334   0.932  1.00  0.00     0.000 A 
ATOM     11  C   UNL     1       6.068  -0.817   1.439  1.00  0.00     0.000 A 
ATOM     12  C   UNL     1       5.387   0.308   1.845  1.00  0.00     0.000 A 
ENDBRANCH   6   7
ENDBRANCH   1   6
TORSDOF 4
ENDMDL
MODEL 3
REMARK VINA RESULT:      -7.0      0.643      1.164
REMARK SMILES O=C(O)CCc1ccccc1
REMARK SMILES IDX 4 1 2 2 1 3 3 4 5 6 6 7 7 8 11 9 8 10 10 11 9 12
REMARK H PARENT 3 5
REMARK Flexibility Score: inf
ROOT
ATOM      1  C   UNL     1       8.294  -0.827  -1.990  1.00  0.00     0.127 C 
ENDROOT
BRANCH   1   2
ATOM      2  C   UNL     1       8.388  -1.999  -2.878  1.00  0.00     0.303 C 
ATOM      3  O   UNL     1       9.514  -2.534  -3.069  1.00  0.00    -0.252 OA
BRANCH   2   4
ATOM      4  O   UNL     1       7.265  -2.543  -3.519  1.00  0.00    -0.481 OA
ATOM      5  H   UNL     1       6.724  -3.246  -3.033  1.00  0.00     0.296 HD
ENDBRANCH   2   4
ENDBRANCH   1   2
BRANCH   1   6
ATOM      6  C   UNL     1       7.876  -1.207  -0.580  1.00  0.00     0.047 C 
BRANCH   6   7
ATOM      7  C   UNL     1       6.875  -0.248  -0.045  1.00  0.00    -0.047 A 
ATOM      8  C   UNL     1       6.369  -0.396   1.239  1.00  0.00     0.004 A 
ATOM      9  C   UNL     1       6.393   0.820  -0.780  1.00  0.00     0.004 A 
ATOM     10  C   UNL     1       5.434   0.469   1.759  1.00  0.00     0.000 A 
ATOM     11  C   UNL     1       5.457   1.685  -0.257  1.00  0.00     0.000 A 
ATOM     12  C   UNL     1       4.958   1.531   1.016  1.00  0.00     0.000 A 
ENDBRANCH   6   7
ENDBRANCH   1   6
TORSDOF 4
ENDMDL
MODEL 4
REMARK VINA RESULT:      -6.8      3.389      5.057
REMARK SMILES O=C(O)CCc1ccccc1
REMARK SMILES IDX 4 1 2 2 1 3 3 4 5 6 6 7 7 8 11 9 8 10 10 11 9 12
REMARK H PARENT 3 5
REMARK Flexibility Score: inf
ROOT
ATOM      1  C   UNL     1       5.006   1.743   0.703  1.00  0.00     0.127 C 
ENDROOT
BRANCH   1   2
ATOM      2  C   UNL     1       4.478   1.098   1.918  1.00  0.00     0.303 C 
ATOM      3  O   UNL     1       5.160   0.197   2.479  1.00  0.00    -0.252 OA
BRANCH   2   4
ATOM      4  O   UNL     1       3.241   1.451   2.476  1.00  0.00    -0.481 OA
ATOM      5  H   UNL     1       2.873   0.890   3.232  1.00  0.00     0.296 HD
ENDBRANCH   2   4
ENDBRANCH   1   2
BRANCH   1   6
ATOM      6  C   UNL     1       6.517   1.889   0.742  1.00  0.00     0.047 C 
BRANCH   6   7
ATOM      7  C   UNL     1       7.157   1.093  -0.338  1.00  0.00    -0.047 A 
ATOM      8  C   UNL     1       6.421   0.168  -1.066  1.00  0.00     0.004 A 
ATOM      9  C   UNL     1       8.494   1.216  -0.667  1.00  0.00     0.004 A 
ATOM     10  C   UNL     1       6.986  -0.591  -2.064  1.00  0.00     0.000 A 
ATOM     11  C   UNL     1       9.059   0.455  -1.668  1.00  0.00     0.000 A 
ATOM     12  C   UNL     1       8.323  -0.461  -2.384  1.00  0.00     0.000 A 
ENDBRANCH   6   7
ENDBRANCH   1   6
TORSDOF 4
ENDMDL
MODEL 5
REMARK VINA RESULT:      -6.6      1.933      2.349
REMARK SMILES O=C(O)CCc1ccccc1
REMARK SMILES IDX 4 1 2 2 1 3 3 4 5 6 6 7 7 8 11 9 8 10 10 11 9 12
REMARK H PARENT 3 5
REMARK Flexibility Score: inf
ROOT
ATOM      1  C   UNL     1       8.241   0.239  -2.236  1.00  0.00     0.127 C 
ENDROOT
BRANCH   1   2
ATOM      2  C   UNL     1       9.359   0.372  -1.285  1.00  0.00     0.303 C 
ATOM      3  O   UNL     1       9.425  -0.417  -0.304  1.00  0.00    -0.252 OA
BRANCH   2   4
ATOM      4  O   UNL     1      10.356   1.347  -1.434  1.00  0.00    -0.481 OA
ATOM      5  H   UNL     1      10.137   2.187  -1.953  1.00  0.00     0.296 HD
ENDBRANCH   2   4
ENDBRANCH   1   2
BRANCH   1   6
ATOM      6  C   UNL     1       7.071  -0.525  -1.644  1.00  0.00     0.047 C 
BRANCH   6   7
ATOM      7  C   UNL     1       6.320   0.317  -0.676  1.00  0.00    -0.047 A 
ATOM      8  C   UNL     1       6.108  -0.118   0.625  1.00  0.00     0.004 A 
ATOM      9  C   UNL     1       5.793   1.551  -1.009  1.00  0.00     0.004 A 
ATOM     10  C   UNL     1       5.409   0.633   1.541  1.00  0.00     0.000 A 
ATOM     11  C   UNL     1       5.092   2.302  -0.090  1.00  0.00     0.000 A 
ATOM     12  C   UNL     1       4.885   1.863   1.198  1.00  0.00     0.000 A 
ENDBRANCH   6   7
ENDBRANCH   1   6
TORSDOF 4
ENDMDL
