@<TRIPOS>MOLECULE
/home/cewinharhar/GITHUB/reincatalyze/data/processed/docking_pred/2023-Apr-25-2248_maxeplen10_maxtrainstep1000_exh16_gamma099_lrac3e-4_lrcr1e-3/44bf36be1ccee3462d679cf400989bbed31f99fd_ligand_2.pdbqt
 12 12 0 0 0
SMALL
GASTEIGER

@<TRIPOS>ATOM
      1  C          8.3810   -0.6580   -2.1160 C.3     1  UNL1        0.1270
      2  C          8.3920   -1.9120   -2.8890 C.2     1  UNL1        0.3030
      3  O          7.2940   -2.4200   -3.2470 O.2     1  UNL1       -0.2520
      4  O          9.5820   -2.5620   -3.2450 O.3     1  UNL1       -0.4810
      5  H          9.8930   -2.5100   -4.2060 H       1  UNL1        0.2960
      6  C          7.0180    0.0110   -2.1240 C.3     1  UNL1        0.0470
      7  C          6.4680    0.1160   -0.7480 C.2     1  UNL1       -0.0470
      8  C          6.6020   -0.9330    0.1500 C.2     1  UNL1        0.0040
      9  C          5.7970    1.2370   -0.2940 C.2     1  UNL1        0.0040
     10  C          6.0950   -0.8700    1.4280 C.2     1  UNL1        0.0000
     11  C          5.2890    1.2980    0.9860 C.2     1  UNL1        0.0000
     12  C          5.4250    0.2520    1.8710 C.2     1  UNL1        0.0000
@<TRIPOS>BOND
     1     5     4    1
     2     3     2    2
     3     4     2    1
     4     2     1    1
     5     6     1    1
     6     6     7    1
     7     7     9    2
     8     7     8    1
     9     9    11    1
    10     8    10    2
    11    11    12    2
    12    10    12    1
