@<TRIPOS>MOLECULE
/home/cewinharhar/GITHUB/reincatalyze/data/processed/docking_pred/2023-Apr-25-2248_maxeplen10_maxtrainstep1000_exh16_gamma099_lrac3e-4_lrcr1e-3/44bf36be1ccee3462d679cf400989bbed31f99fd_ligand_2.pdbqt
 12 12 0 0 0
SMALL
GASTEIGER

@<TRIPOS>ATOM
      1  C          5.5340    2.9060    0.0110 C.3     1  UNL1        0.1270
      2  C          6.2970    3.8640    0.8310 C.2     1  UNL1        0.3030
      3  O          6.9530    4.7750    0.2560 O.2     1  UNL1       -0.2520
      4  O          6.3170    3.8000    2.2320 O.3     1  UNL1       -0.4810
      5  H          5.5010    4.1100    2.7420 H       1  UNL1        0.2960
      6  C          4.8380    1.8540    0.8570 C.3     1  UNL1        0.0470
      7  C          5.6570    0.6170    0.9480 C.2     1  UNL1       -0.0470
      8  C          6.3500    0.1450   -0.1570 C.2     1  UNL1        0.0040
      9  C          5.7650   -0.1250    2.1100 C.2     1  UNL1        0.0040
     10  C          7.1080   -1.0030   -0.1080 C.2     1  UNL1        0.0000
     11  C          6.5250   -1.2740    2.1580 C.2     1  UNL1        0.0000
     12  C          7.2090   -1.7370    1.0570 C.2     1  UNL1        0.0000
@<TRIPOS>BOND
     1     8    10    1
     2     8     7    2
     3    10    12    2
     4     1     2    1
     5     1     6    1
     6     3     2    2
     7     2     4    1
     8     6     7    1
     9     7     9    1
    10    12    11    1
    11     9    11    2
    12     4     5    1
