MODEL 1
REMARK VINA RESULT:      -7.2      0.000      0.000
REMARK SMILES O=C(O)CCc1ccccc1
REMARK SMILES IDX 4 1 2 2 1 3 3 4 5 6 6 7 7 8 11 9 8 10 10 11 9 12
REMARK H PARENT 3 5
REMARK Flexibility Score: inf
ROOT
ATOM      1  C   UNL     1       8.412  -0.809  -1.942  1.00  0.00     0.127 C 
ENDROOT
BRANCH   1   2
ATOM      2  C   UNL     1       8.389  -1.978  -2.839  1.00  0.00     0.303 C 
ATOM      3  O   UNL     1       7.281  -2.402  -3.266  1.00  0.00    -0.252 OA
BRANCH   2   4
ATOM      4  O   UNL     1       9.561  -2.638  -3.237  1.00  0.00    -0.481 OA
ATOM      5  H   UNL     1       9.845  -2.577  -4.205  1.00  0.00     0.296 HD
ENDBRANCH   2   4
ENDBRANCH   1   2
BRANCH   1   6
ATOM      6  C   UNL     1       7.129  -0.000  -2.022  1.00  0.00     0.047 C 
BRANCH   6   7
ATOM      7  C   UNL     1       6.492   0.122  -0.684  1.00  0.00    -0.047 A 
ATOM      8  C   UNL     1       5.767   1.255  -0.347  1.00  0.00     0.004 A 
ATOM      9  C   UNL     1       6.591  -0.861   0.284  1.00  0.00     0.004 A 
ATOM     10  C   UNL     1       5.174   1.403   0.886  1.00  0.00     0.000 A 
ATOM     11  C   UNL     1       5.997  -0.711   1.519  1.00  0.00     0.000 A 
ATOM     12  C   UNL     1       5.280   0.417   1.847  1.00  0.00     0.000 A 
ENDBRANCH   6   7
ENDBRANCH   1   6
TORSDOF 4
ENDMDL
MODEL 2
REMARK VINA RESULT:      -7.2      0.150      1.426
REMARK SMILES O=C(O)CCc1ccccc1
REMARK SMILES IDX 4 1 2 2 1 3 3 4 5 6 6 7 7 8 11 9 8 10 10 11 9 12
REMARK H PARENT 3 5
REMARK Flexibility Score: inf
ROOT
ATOM      1  C   UNL     1       8.381  -0.658  -2.116  1.00  0.00     0.127 C 
ENDROOT
BRANCH   1   2
ATOM      2  C   UNL     1       8.392  -1.912  -2.889  1.00  0.00     0.303 C 
ATOM      3  O   UNL     1       7.294  -2.420  -3.247  1.00  0.00    -0.252 OA
BRANCH   2   4
ATOM      4  O   UNL     1       9.582  -2.562  -3.245  1.00  0.00    -0.481 OA
ATOM      5  H   UNL     1       9.893  -2.510  -4.206  1.00  0.00     0.296 HD
ENDBRANCH   2   4
ENDBRANCH   1   2
BRANCH   1   6
ATOM      6  C   UNL     1       7.018   0.011  -2.124  1.00  0.00     0.047 C 
BRANCH   6   7
ATOM      7  C   UNL     1       6.468   0.116  -0.748  1.00  0.00    -0.047 A 
ATOM      8  C   UNL     1       6.602  -0.933   0.150  1.00  0.00     0.004 A 
ATOM      9  C   UNL     1       5.797   1.237  -0.294  1.00  0.00     0.004 A 
ATOM     10  C   UNL     1       6.095  -0.870   1.428  1.00  0.00     0.000 A 
ATOM     11  C   UNL     1       5.289   1.298   0.986  1.00  0.00     0.000 A 
ATOM     12  C   UNL     1       5.425   0.252   1.871  1.00  0.00     0.000 A 
ENDBRANCH   6   7
ENDBRANCH   1   6
TORSDOF 4
ENDMDL
MODEL 3
REMARK VINA RESULT:      -6.8      3.326      5.178
REMARK SMILES O=C(O)CCc1ccccc1
REMARK SMILES IDX 4 1 2 2 1 3 3 4 5 6 6 7 7 8 11 9 8 10 10 11 9 12
REMARK H PARENT 3 5
REMARK Flexibility Score: inf
ROOT
ATOM      1  C   UNL     1       5.002   1.806   0.734  1.00  0.00     0.127 C 
ENDROOT
BRANCH   1   2
ATOM      2  C   UNL     1       4.464   1.123   1.924  1.00  0.00     0.303 C 
ATOM      3  O   UNL     1       5.140   0.205   2.462  1.00  0.00    -0.252 OA
BRANCH   2   4
ATOM      4  O   UNL     1       3.222   1.460   2.482  1.00  0.00    -0.481 OA
ATOM      5  H   UNL     1       2.888   2.409   2.381  1.00  0.00     0.296 HD
ENDBRANCH   2   4
ENDBRANCH   1   2
BRANCH   1   6
ATOM      6  C   UNL     1       6.517   1.899   0.763  1.00  0.00     0.047 C 
BRANCH   6   7
ATOM      7  C   UNL     1       7.121   1.089  -0.327  1.00  0.00    -0.047 A 
ATOM      8  C   UNL     1       8.462   1.232  -0.655  1.00  0.00     0.004 A 
ATOM      9  C   UNL     1       6.397   0.173  -1.068  1.00  0.00     0.004 A 
ATOM     10  C   UNL     1       9.048   0.504  -1.666  1.00  0.00     0.000 A 
ATOM     11  C   UNL     1       6.986  -0.555  -2.080  1.00  0.00     0.000 A 
ATOM     12  C   UNL     1       8.316  -0.407  -2.400  1.00  0.00     0.000 A 
ENDBRANCH   6   7
ENDBRANCH   1   6
TORSDOF 4
ENDMDL
MODEL 4
REMARK VINA RESULT:      -6.7      3.829      4.964
REMARK SMILES O=C(O)CCc1ccccc1
REMARK SMILES IDX 4 1 2 2 1 3 3 4 5 6 6 7 7 8 11 9 8 10 10 11 9 12
REMARK H PARENT 3 5
REMARK Flexibility Score: inf
ROOT
ATOM      1  C   UNL     1       5.534   2.906   0.011  1.00  0.00     0.127 C 
ENDROOT
BRANCH   1   2
ATOM      2  C   UNL     1       6.297   3.864   0.831  1.00  0.00     0.303 C 
ATOM      3  O   UNL     1       6.953   4.775   0.256  1.00  0.00    -0.252 OA
BRANCH   2   4
ATOM      4  O   UNL     1       6.317   3.800   2.232  1.00  0.00    -0.481 OA
ATOM      5  H   UNL     1       5.501   4.110   2.742  1.00  0.00     0.296 HD
ENDBRANCH   2   4
ENDBRANCH   1   2
BRANCH   1   6
ATOM      6  C   UNL     1       4.838   1.854   0.857  1.00  0.00     0.047 C 
BRANCH   6   7
ATOM      7  C   UNL     1       5.657   0.617   0.948  1.00  0.00    -0.047 A 
ATOM      8  C   UNL     1       6.350   0.145  -0.157  1.00  0.00     0.004 A 
ATOM      9  C   UNL     1       5.765  -0.125   2.110  1.00  0.00     0.004 A 
ATOM     10  C   UNL     1       7.108  -1.003  -0.108  1.00  0.00     0.000 A 
ATOM     11  C   UNL     1       6.525  -1.274   2.158  1.00  0.00     0.000 A 
ATOM     12  C   UNL     1       7.209  -1.737   1.057  1.00  0.00     0.000 A 
ENDBRANCH   6   7
ENDBRANCH   1   6
TORSDOF 4
ENDMDL
MODEL 5
REMARK VINA RESULT:      -6.6      1.890      2.906
REMARK SMILES O=C(O)CCc1ccccc1
REMARK SMILES IDX 4 1 2 2 1 3 3 4 5 6 6 7 7 8 11 9 8 10 10 11 9 12
REMARK H PARENT 3 5
REMARK Flexibility Score: inf
ROOT
ATOM      1  C   UNL     1       8.211  -1.629   1.109  1.00  0.00     0.127 C 
ENDROOT
BRANCH   1   2
ATOM      2  C   UNL     1       8.515  -2.826   0.305  1.00  0.00     0.303 C 
ATOM      3  O   UNL     1       9.166  -3.769   0.832  1.00  0.00    -0.252 OA
BRANCH   2   4
ATOM      4  O   UNL     1       8.103  -2.955  -1.030  1.00  0.00    -0.481 OA
ATOM      5  H   UNL     1       7.463  -2.269  -1.406  1.00  0.00     0.296 HD
ENDBRANCH   2   4
ENDBRANCH   1   2
BRANCH   1   6
ATOM      6  C   UNL     1       6.731  -1.511   1.426  1.00  0.00     0.047 C 
BRANCH   6   7
ATOM      7  C   UNL     1       6.169  -0.248   0.882  1.00  0.00    -0.047 A 
ATOM      8  C   UNL     1       6.430   0.137  -0.426  1.00  0.00     0.004 A 
ATOM      9  C   UNL     1       5.378   0.604   1.631  1.00  0.00     0.004 A 
ATOM     10  C   UNL     1       5.932   1.305  -0.956  1.00  0.00     0.000 A 
ATOM     11  C   UNL     1       4.880   1.773   1.098  1.00  0.00     0.000 A 
ATOM     12  C   UNL     1       5.145   2.149  -0.199  1.00  0.00     0.000 A 
ENDBRANCH   6   7
ENDBRANCH   1   6
TORSDOF 4
ENDMDL
