@<TRIPOS>MOLECULE
/home/cewinharhar/GITHUB/reincatalyze/data/processed/docking_pred/2023-Apr-25-2248_maxeplen10_maxtrainstep1000_exh16_gamma099_lrac3e-4_lrcr1e-3/44bf36be1ccee3462d679cf400989bbed31f99fd_ligand_2.pdbqt
 12 12 0 0 0
SMALL
GASTEIGER

@<TRIPOS>ATOM
      1  C          8.2110   -1.6290    1.1090 C.3     1  UNL1        0.1270
      2  C          8.5150   -2.8260    0.3050 C.2     1  UNL1        0.3030
      3  O          9.1660   -3.7690    0.8320 O.2     1  UNL1       -0.2520
      4  O          8.1030   -2.9550   -1.0300 O.3     1  UNL1       -0.4810
      5  H          7.4630   -2.2690   -1.4060 H       1  UNL1        0.2960
      6  C          6.7310   -1.5110    1.4260 C.3     1  UNL1        0.0470
      7  C          6.1690   -0.2480    0.8820 C.2     1  UNL1       -0.0470
      8  C          6.4300    0.1370   -0.4260 C.2     1  UNL1        0.0040
      9  C          5.3780    0.6040    1.6310 C.2     1  UNL1        0.0040
     10  C          5.9320    1.3050   -0.9560 C.2     1  UNL1        0.0000
     11  C          4.8800    1.7730    1.0980 C.2     1  UNL1        0.0000
     12  C          5.1450    2.1490   -0.1990 C.2     1  UNL1        0.0000
@<TRIPOS>BOND
     1     5     4    1
     2     4     2    1
     3    10     8    1
     4    10    12    2
     5     8     7    2
     6    12    11    1
     7     2     3    2
     8     2     1    1
     9     7     6    1
    10     7     9    1
    11    11     9    2
    12     1     6    1
