@<TRIPOS>MOLECULE
/home/cewinharhar/GITHUB/reincatalyze/data/processed/docking_pred/2023-Apr-25-2248_maxeplen10_maxtrainstep1000_exh16_gamma099_lrac3e-4_lrcr1e-3/44bf36be1ccee3462d679cf400989bbed31f99fd_ligand_2.pdbqt
 12 12 0 0 0
SMALL
GASTEIGER

@<TRIPOS>ATOM
      1  C          8.4120   -0.8090   -1.9420 C.3     1  UNL1        0.1270
      2  C          8.3890   -1.9780   -2.8390 C.2     1  UNL1        0.3030
      3  O          7.2810   -2.4020   -3.2660 O.2     1  UNL1       -0.2520
      4  O          9.5610   -2.6380   -3.2370 O.3     1  UNL1       -0.4810
      5  H          9.8450   -2.5770   -4.2050 H       1  UNL1        0.2960
      6  C          7.1290   -0.0000   -2.0220 C.3     1  UNL1        0.0470
      7  C          6.4920    0.1220   -0.6840 C.2     1  UNL1       -0.0470
      8  C          5.7670    1.2550   -0.3470 C.2     1  UNL1        0.0040
      9  C          6.5910   -0.8610    0.2840 C.2     1  UNL1        0.0040
     10  C          5.1740    1.4030    0.8860 C.2     1  UNL1        0.0000
     11  C          5.9970   -0.7110    1.5190 C.2     1  UNL1        0.0000
     12  C          5.2800    0.4170    1.8470 C.2     1  UNL1        0.0000
@<TRIPOS>BOND
     1     5     4    1
     2     3     2    2
     3     4     2    1
     4     2     1    1
     5     6     1    1
     6     6     7    1
     7     7     8    2
     8     7     9    1
     9     8    10    1
    10     9    11    2
    11    10    12    2
    12    11    12    1
