@<TRIPOS>MOLECULE
/home/cewinharhar/GITHUB/reincatalyze/data/processed/docking_pred/2023-Apr-25-2248_maxeplen10_maxtrainstep1000_exh16_gamma099_lrac3e-4_lrcr1e-3/44bf36be1ccee3462d679cf400989bbed31f99fd_ligand_2.pdbqt
 12 12 0 0 0
SMALL
GASTEIGER

@<TRIPOS>ATOM
      1  C          5.0020    1.8060    0.7340 C.3     1  UNL1        0.1270
      2  C          4.4640    1.1230    1.9240 C.2     1  UNL1        0.3030
      3  O          5.1400    0.2050    2.4620 O.2     1  UNL1       -0.2520
      4  O          3.2220    1.4600    2.4820 O.3     1  UNL1       -0.4810
      5  H          2.8880    2.4090    2.3810 H       1  UNL1        0.2960
      6  C          6.5170    1.8990    0.7630 C.3     1  UNL1        0.0470
      7  C          7.1210    1.0890   -0.3270 C.2     1  UNL1       -0.0470
      8  C          8.4620    1.2320   -0.6550 C.2     1  UNL1        0.0040
      9  C          6.3970    0.1730   -1.0680 C.2     1  UNL1        0.0040
     10  C          9.0480    0.5040   -1.6660 C.2     1  UNL1        0.0000
     11  C          6.9860   -0.5550   -2.0800 C.2     1  UNL1        0.0000
     12  C          8.3160   -0.4070   -2.4000 C.2     1  UNL1        0.0000
@<TRIPOS>BOND
     1    12    11    2
     2    12    10    1
     3    11     9    1
     4    10     8    2
     5     9     7    2
     6     8     7    1
     7     7     6    1
     8     1     6    1
     9     1     2    1
    10     2     3    2
    11     2     4    1
    12     5     4    1
