MODEL 1
REMARK VINA RESULT:      -7.3      0.000      0.000
REMARK SMILES O=C(O)CCc1ccccc1
REMARK SMILES IDX 4 1 2 2 1 3 3 4 5 6 6 7 7 8 11 9 8 10 10 11 9 12
REMARK H PARENT 3 5
REMARK Flexibility Score: inf
ROOT
ATOM      1  C   UNL     1       8.426  -0.648  -2.119  1.00  0.00     0.127 C 
ENDROOT
BRANCH   1   2
ATOM      2  C   UNL     1       8.415  -1.906  -2.887  1.00  0.00     0.303 C 
ATOM      3  O   UNL     1       7.308  -2.414  -3.213  1.00  0.00    -0.252 OA
BRANCH   2   4
ATOM      4  O   UNL     1       9.595  -2.558  -3.271  1.00  0.00    -0.481 OA
ATOM      5  H   UNL     1      10.296  -2.033  -3.775  1.00  0.00     0.296 HD
ENDBRANCH   2   4
ENDBRANCH   1   2
BRANCH   1   6
ATOM      6  C   UNL     1       7.078   0.049  -2.139  1.00  0.00     0.047 C 
BRANCH   6   7
ATOM      7  C   UNL     1       6.498   0.128  -0.773  1.00  0.00    -0.047 A 
ATOM      8  C   UNL     1       5.792   1.252  -0.368  1.00  0.00     0.004 A 
ATOM      9  C   UNL     1       6.634  -0.886   0.157  1.00  0.00     0.004 A 
ATOM     10  C   UNL     1       5.253   1.360   0.894  1.00  0.00     0.000 A 
ATOM     11  C   UNL     1       6.093  -0.776   1.420  1.00  0.00     0.000 A 
ATOM     12  C   UNL     1       5.395   0.342   1.816  1.00  0.00     0.000 A 
ENDBRANCH   6   7
ENDBRANCH   1   6
TORSDOF 4
ENDMDL
MODEL 2
REMARK VINA RESULT:      -7.2      0.038      1.421
REMARK SMILES O=C(O)CCc1ccccc1
REMARK SMILES IDX 4 1 2 2 1 3 3 4 5 6 6 7 7 8 11 9 8 10 10 11 9 12
REMARK H PARENT 3 5
REMARK Flexibility Score: inf
ROOT
ATOM      1  C   UNL     1       8.386  -0.670  -2.100  1.00  0.00     0.127 C 
ENDROOT
BRANCH   1   2
ATOM      2  C   UNL     1       8.387  -1.915  -2.888  1.00  0.00     0.303 C 
ATOM      3  O   UNL     1       7.286  -2.408  -3.256  1.00  0.00    -0.252 OA
BRANCH   2   4
ATOM      4  O   UNL     1       9.573  -2.573  -3.245  1.00  0.00    -0.481 OA
ATOM      5  H   UNL     1      10.186  -2.898  -2.510  1.00  0.00     0.296 HD
ENDBRANCH   2   4
ENDBRANCH   1   2
BRANCH   1   6
ATOM      6  C   UNL     1       7.038   0.028  -2.133  1.00  0.00     0.047 C 
BRANCH   6   7
ATOM      7  C   UNL     1       6.470   0.155  -0.765  1.00  0.00    -0.047 A 
ATOM      8  C   UNL     1       6.604  -0.875   0.155  1.00  0.00     0.004 A 
ATOM      9  C   UNL     1       5.782   1.277  -0.341  1.00  0.00     0.004 A 
ATOM     10  C   UNL     1       6.081  -0.793   1.425  1.00  0.00     0.000 A 
ATOM     11  C   UNL     1       5.258   1.357   0.931  1.00  0.00     0.000 A 
ATOM     12  C   UNL     1       5.394   0.331   1.838  1.00  0.00     0.000 A 
ENDBRANCH   6   7
ENDBRANCH   1   6
TORSDOF 4
ENDMDL
MODEL 3
REMARK VINA RESULT:      -6.9      1.038      1.616
REMARK SMILES O=C(O)CCc1ccccc1
REMARK SMILES IDX 4 1 2 2 1 3 3 4 5 6 6 7 7 8 11 9 8 10 10 11 9 12
REMARK H PARENT 3 5
REMARK Flexibility Score: inf
ROOT
ATOM      1  C   UNL     1       7.326  -1.255  -2.149  1.00  0.00     0.127 C 
ENDROOT
BRANCH   1   2
ATOM      2  C   UNL     1       8.750  -1.344  -2.516  1.00  0.00     0.303 C 
ATOM      3  O   UNL     1       9.547  -0.461  -2.096  1.00  0.00    -0.252 OA
BRANCH   2   4
ATOM      4  O   UNL     1       9.252  -2.379  -3.318  1.00  0.00    -0.481 OA
ATOM      5  H   UNL     1       9.321  -2.229  -4.315  1.00  0.00     0.296 HD
ENDBRANCH   2   4
ENDBRANCH   1   2
BRANCH   1   6
ATOM      6  C   UNL     1       7.105  -1.439  -0.658  1.00  0.00     0.047 C 
BRANCH   6   7
ATOM      7  C   UNL     1       6.357  -0.290  -0.085  1.00  0.00    -0.047 A 
ATOM      8  C   UNL     1       6.115   0.847  -0.843  1.00  0.00     0.004 A 
ATOM      9  C   UNL     1       5.878  -0.281   1.213  1.00  0.00     0.004 A 
ATOM     10  C   UNL     1       5.435   1.931  -0.338  1.00  0.00     0.000 A 
ATOM     11  C   UNL     1       5.197   0.806   1.717  1.00  0.00     0.000 A 
ATOM     12  C   UNL     1       4.962   1.930   0.959  1.00  0.00     0.000 A 
ENDBRANCH   6   7
ENDBRANCH   1   6
TORSDOF 4
ENDMDL
MODEL 4
REMARK VINA RESULT:      -6.8      3.306      5.154
REMARK SMILES O=C(O)CCc1ccccc1
REMARK SMILES IDX 4 1 2 2 1 3 3 4 5 6 6 7 7 8 11 9 8 10 10 11 9 12
REMARK H PARENT 3 5
REMARK Flexibility Score: inf
ROOT
ATOM      1  C   UNL     1       5.001   1.754   0.692  1.00  0.00     0.127 C 
ENDROOT
BRANCH   1   2
ATOM      2  C   UNL     1       4.482   1.109   1.911  1.00  0.00     0.303 C 
ATOM      3  O   UNL     1       5.174   0.218   2.474  1.00  0.00    -0.252 OA
BRANCH   2   4
ATOM      4  O   UNL     1       3.242   1.453   2.469  1.00  0.00    -0.481 OA
ATOM      5  H   UNL     1       2.847   2.357   2.249  1.00  0.00     0.296 HD
ENDBRANCH   2   4
ENDBRANCH   1   2
BRANCH   1   6
ATOM      6  C   UNL     1       6.513   1.888   0.712  1.00  0.00     0.047 C 
BRANCH   6   7
ATOM      7  C   UNL     1       7.135   1.068  -0.360  1.00  0.00    -0.047 A 
ATOM      8  C   UNL     1       8.488   1.184  -0.645  1.00  0.00     0.004 A 
ATOM      9  C   UNL     1       6.417   0.168  -1.126  1.00  0.00     0.004 A 
ATOM     10  C   UNL     1       9.091   0.447  -1.638  1.00  0.00     0.000 A 
ATOM     11  C   UNL     1       7.023  -0.570  -2.120  1.00  0.00     0.000 A 
ATOM     12  C   UNL     1       8.365  -0.448  -2.398  1.00  0.00     0.000 A 
ENDBRANCH   6   7
ENDBRANCH   1   6
TORSDOF 4
ENDMDL
MODEL 5
REMARK VINA RESULT:      -6.6      1.884      2.901
REMARK SMILES O=C(O)CCc1ccccc1
REMARK SMILES IDX 4 1 2 2 1 3 3 4 5 6 6 7 7 8 11 9 8 10 10 11 9 12
REMARK H PARENT 3 5
REMARK Flexibility Score: inf
ROOT
ATOM      1  C   UNL     1       8.187  -1.607   1.061  1.00  0.00     0.127 C 
ENDROOT
BRANCH   1   2
ATOM      2  C   UNL     1       8.497  -2.817   0.278  1.00  0.00     0.303 C 
ATOM      3  O   UNL     1       9.138  -3.754   0.826  1.00  0.00    -0.252 OA
BRANCH   2   4
ATOM      4  O   UNL     1       8.100  -2.963  -1.059  1.00  0.00    -0.481 OA
ATOM      5  H   UNL     1       7.498  -3.737  -1.303  1.00  0.00     0.296 HD
ENDBRANCH   2   4
ENDBRANCH   1   2
BRANCH   1   6
ATOM      6  C   UNL     1       6.701  -1.465   1.334  1.00  0.00     0.047 C 
BRANCH   6   7
ATOM      7  C   UNL     1       6.176  -0.193   0.773  1.00  0.00    -0.047 A 
ATOM      8  C   UNL     1       5.402   0.658   1.550  1.00  0.00     0.004 A 
ATOM      9  C   UNL     1       6.413   0.205  -0.530  1.00  0.00     0.004 A 
ATOM     10  C   UNL     1       4.893   1.837   1.056  1.00  0.00     0.000 A 
ATOM     11  C   UNL     1       5.903   1.387  -1.023  1.00  0.00     0.000 A 
ATOM     12  C   UNL     1       5.135   2.224  -0.246  1.00  0.00     0.000 A 
ENDBRANCH   6   7
ENDBRANCH   1   6
TORSDOF 4
ENDMDL
