@<TRIPOS>MOLECULE
/home/cewinharhar/GITHUB/reincatalyze/data/processed/docking_pred/2023-Apr-25-2248_maxeplen10_maxtrainstep1000_exh16_gamma099_lrac3e-4_lrcr1e-3/46824fcf52dc560be674bfd6df7e039c48ea1670_ligand_2.pdbqt
 12 12 0 0 0
SMALL
GASTEIGER

@<TRIPOS>ATOM
      1  C          7.3260   -1.2550   -2.1490 C.3     1  UNL1        0.1270
      2  C          8.7500   -1.3440   -2.5160 C.2     1  UNL1        0.3030
      3  O          9.5470   -0.4610   -2.0960 O.2     1  UNL1       -0.2520
      4  O          9.2520   -2.3790   -3.3180 O.3     1  UNL1       -0.4810
      5  H          9.3210   -2.2290   -4.3150 H       1  UNL1        0.2960
      6  C          7.1050   -1.4390   -0.6580 C.3     1  UNL1        0.0470
      7  C          6.3570   -0.2900   -0.0850 C.2     1  UNL1       -0.0470
      8  C          6.1150    0.8470   -0.8430 C.2     1  UNL1        0.0040
      9  C          5.8780   -0.2810    1.2130 C.2     1  UNL1        0.0040
     10  C          5.4350    1.9310   -0.3380 C.2     1  UNL1        0.0000
     11  C          5.1970    0.8060    1.7170 C.2     1  UNL1        0.0000
     12  C          4.9620    1.9300    0.9590 C.2     1  UNL1        0.0000
@<TRIPOS>BOND
     1     5     4    1
     2     4     2    1
     3     2     1    1
     4     2     3    2
     5     1     6    1
     6     8    10    1
     7     8     7    2
     8     6     7    1
     9    10    12    2
    10     7     9    1
    11    12    11    1
    12     9    11    2
