@<TRIPOS>MOLECULE
/home/cewinharhar/GITHUB/reincatalyze/data/processed/docking_pred/2023-Apr-25-2248_maxeplen10_maxtrainstep1000_exh16_gamma099_lrac3e-4_lrcr1e-3/46824fcf52dc560be674bfd6df7e039c48ea1670_ligand_2.pdbqt
 12 12 0 0 0
SMALL
GASTEIGER

@<TRIPOS>ATOM
      1  C          5.0010    1.7540    0.6920 C.3     1  UNL1        0.1270
      2  C          4.4820    1.1090    1.9110 C.2     1  UNL1        0.3030
      3  O          5.1740    0.2180    2.4740 O.2     1  UNL1       -0.2520
      4  O          3.2420    1.4530    2.4690 O.3     1  UNL1       -0.4810
      5  H          2.8470    2.3570    2.2490 H       1  UNL1        0.2960
      6  C          6.5130    1.8880    0.7120 C.3     1  UNL1        0.0470
      7  C          7.1350    1.0680   -0.3600 C.2     1  UNL1       -0.0470
      8  C          8.4880    1.1840   -0.6450 C.2     1  UNL1        0.0040
      9  C          6.4170    0.1680   -1.1260 C.2     1  UNL1        0.0040
     10  C          9.0910    0.4470   -1.6380 C.2     1  UNL1        0.0000
     11  C          7.0230   -0.5700   -2.1200 C.2     1  UNL1        0.0000
     12  C          8.3650   -0.4480   -2.3980 C.2     1  UNL1        0.0000
@<TRIPOS>BOND
     1    12    11    2
     2    12    10    1
     3    11     9    1
     4    10     8    2
     5     9     7    2
     6     8     7    1
     7     7     6    1
     8     1     6    1
     9     1     2    1
    10     2     4    1
    11     2     3    2
    12     5     4    1
