@<TRIPOS>MOLECULE
/home/cewinharhar/GITHUB/reincatalyze/data/processed/docking_pred/2023-Apr-25-2248_maxeplen10_maxtrainstep1000_exh16_gamma099_lrac3e-4_lrcr1e-3/46824fcf52dc560be674bfd6df7e039c48ea1670_ligand_2.pdbqt
 12 12 0 0 0
SMALL
GASTEIGER

@<TRIPOS>ATOM
      1  C          8.1870   -1.6070    1.0610 C.3     1  UNL1        0.1270
      2  C          8.4970   -2.8170    0.2780 C.2     1  UNL1        0.3030
      3  O          9.1380   -3.7540    0.8260 O.2     1  UNL1       -0.2520
      4  O          8.1000   -2.9630   -1.0590 O.3     1  UNL1       -0.4810
      5  H          7.4980   -3.7370   -1.3030 H       1  UNL1        0.2960
      6  C          6.7010   -1.4650    1.3340 C.3     1  UNL1        0.0470
      7  C          6.1760   -0.1930    0.7730 C.2     1  UNL1       -0.0470
      8  C          5.4020    0.6580    1.5500 C.2     1  UNL1        0.0040
      9  C          6.4130    0.2050   -0.5300 C.2     1  UNL1        0.0040
     10  C          4.8930    1.8370    1.0560 C.2     1  UNL1        0.0000
     11  C          5.9030    1.3870   -1.0230 C.2     1  UNL1        0.0000
     12  C          5.1350    2.2240   -0.2460 C.2     1  UNL1        0.0000
@<TRIPOS>BOND
     1     5     4    1
     2     4     2    1
     3    11     9    1
     4    11    12    2
     5     9     7    2
     6    12    10    1
     7     2     3    2
     8     2     1    1
     9     7     6    1
    10     7     8    1
    11    10     8    2
    12     1     6    1
