@<TRIPOS>MOLECULE
/home/cewinharhar/GITHUB/reincatalyze/data/processed/docking_pred/2023-Apr-25-2248_maxeplen10_maxtrainstep1000_exh16_gamma099_lrac3e-4_lrcr1e-3/46861e00ed193d15618049a480e2ca269f83ce14_ligand_2.pdbqt
 12 12 0 0 0
SMALL
GASTEIGER

@<TRIPOS>ATOM
      1  C          8.4180   -0.6600   -2.1180 C.3     1  UNL1        0.1270
      2  C          8.4060   -1.9150   -2.8910 C.2     1  UNL1        0.3030
      3  O          7.2990   -2.4120   -3.2340 O.2     1  UNL1       -0.2520
      4  O          9.5850   -2.5770   -3.2620 O.3     1  UNL1       -0.4810
      5  H         10.4610   -2.0760   -3.1980 H       1  UNL1        0.2960
      6  C          7.0720    0.0410   -2.1410 C.3     1  UNL1        0.0470
      7  C          6.4920    0.1240   -0.7750 C.2     1  UNL1       -0.0470
      8  C          5.8050    1.2580   -0.3660 C.2     1  UNL1        0.0040
      9  C          6.6090   -0.8960    0.1510 C.2     1  UNL1        0.0040
     10  C          5.2650    1.3700    0.8950 C.2     1  UNL1        0.0000
     11  C          6.0680   -0.7820    1.4140 C.2     1  UNL1        0.0000
     12  C          5.3880    0.3460    1.8130 C.2     1  UNL1        0.0000
@<TRIPOS>BOND
     1     4     5    1
     2     4     2    1
     3     3     2    2
     4     2     1    1
     5     6     1    1
     6     6     7    1
     7     7     8    2
     8     7     9    1
     9     8    10    1
    10     9    11    2
    11    10    12    2
    12    11    12    1
