@<TRIPOS>MOLECULE
/home/cewinharhar/GITHUB/reincatalyze/data/processed/docking_pred/2023-Apr-25-2248_maxeplen10_maxtrainstep1000_exh16_gamma099_lrac3e-4_lrcr1e-3/46861e00ed193d15618049a480e2ca269f83ce14_ligand_2.pdbqt
 12 12 0 0 0
SMALL
GASTEIGER

@<TRIPOS>ATOM
      1  C          8.3950   -0.6420   -2.1540 C.3     1  UNL1        0.1270
      2  C          8.4240   -1.9070   -2.9090 C.2     1  UNL1        0.3030
      3  O          9.5270   -2.4940   -3.0770 O.2     1  UNL1       -0.2520
      4  O          7.2640   -2.4850   -3.4460 O.3     1  UNL1       -0.4810
      5  H          6.3760   -2.0340   -3.2750 H       1  UNL1        0.2960
      6  C          7.0090   -0.0220   -2.1270 C.3     1  UNL1        0.0470
      7  C          6.4840    0.0480   -0.7380 C.2     1  UNL1       -0.0470
      8  C          6.6240   -1.0280    0.1260 C.2     1  UNL1        0.0040
      9  C          5.8300    1.1610   -0.2410 C.2     1  UNL1        0.0040
     10  C          6.1390   -0.9980    1.4140 C.2     1  UNL1        0.0000
     11  C          5.3460    1.1890    1.0490 C.2     1  UNL1        0.0000
     12  C          5.4870    0.1170    1.9010 C.2     1  UNL1        0.0000
@<TRIPOS>BOND
     1     4     5    1
     2     4     2    1
     3     3     2    2
     4     2     1    1
     5     1     6    1
     6     6     7    1
     7     7     9    2
     8     7     8    1
     9     9    11    1
    10     8    10    2
    11    11    12    2
    12    10    12    1
