MODEL 1
REMARK VINA RESULT:      -7.3      0.000      0.000
REMARK SMILES O=C(O)CCc1ccccc1
REMARK SMILES IDX 4 1 2 2 1 3 3 4 5 6 6 7 7 8 11 9 8 10 10 11 9 12
REMARK H PARENT 3 5
REMARK Flexibility Score: inf
ROOT
ATOM      1  C   UNL     1       8.395  -0.642  -2.154  1.00  0.00     0.127 C 
ENDROOT
BRANCH   1   2
ATOM      2  C   UNL     1       8.424  -1.907  -2.909  1.00  0.00     0.303 C 
ATOM      3  O   UNL     1       9.527  -2.494  -3.077  1.00  0.00    -0.252 OA
BRANCH   2   4
ATOM      4  O   UNL     1       7.264  -2.485  -3.446  1.00  0.00    -0.481 OA
ATOM      5  H   UNL     1       6.376  -2.034  -3.275  1.00  0.00     0.296 HD
ENDBRANCH   2   4
ENDBRANCH   1   2
BRANCH   1   6
ATOM      6  C   UNL     1       7.009  -0.022  -2.127  1.00  0.00     0.047 C 
BRANCH   6   7
ATOM      7  C   UNL     1       6.484   0.048  -0.738  1.00  0.00    -0.047 A 
ATOM      8  C   UNL     1       6.624  -1.028   0.126  1.00  0.00     0.004 A 
ATOM      9  C   UNL     1       5.830   1.161  -0.241  1.00  0.00     0.004 A 
ATOM     10  C   UNL     1       6.139  -0.998   1.414  1.00  0.00     0.000 A 
ATOM     11  C   UNL     1       5.346   1.189   1.049  1.00  0.00     0.000 A 
ATOM     12  C   UNL     1       5.487   0.117   1.901  1.00  0.00     0.000 A 
ENDBRANCH   6   7
ENDBRANCH   1   6
TORSDOF 4
ENDMDL
MODEL 2
REMARK VINA RESULT:      -7.3      0.177      1.727
REMARK SMILES O=C(O)CCc1ccccc1
REMARK SMILES IDX 4 1 2 2 1 3 3 4 5 6 6 7 7 8 11 9 8 10 10 11 9 12
REMARK H PARENT 3 5
REMARK Flexibility Score: inf
ROOT
ATOM      1  C   UNL     1       8.418  -0.660  -2.118  1.00  0.00     0.127 C 
ENDROOT
BRANCH   1   2
ATOM      2  C   UNL     1       8.406  -1.915  -2.891  1.00  0.00     0.303 C 
ATOM      3  O   UNL     1       7.299  -2.412  -3.234  1.00  0.00    -0.252 OA
BRANCH   2   4
ATOM      4  O   UNL     1       9.585  -2.577  -3.262  1.00  0.00    -0.481 OA
ATOM      5  H   UNL     1      10.461  -2.076  -3.198  1.00  0.00     0.296 HD
ENDBRANCH   2   4
ENDBRANCH   1   2
BRANCH   1   6
ATOM      6  C   UNL     1       7.072   0.041  -2.141  1.00  0.00     0.047 C 
BRANCH   6   7
ATOM      7  C   UNL     1       6.492   0.124  -0.775  1.00  0.00    -0.047 A 
ATOM      8  C   UNL     1       5.805   1.258  -0.366  1.00  0.00     0.004 A 
ATOM      9  C   UNL     1       6.609  -0.896   0.151  1.00  0.00     0.004 A 
ATOM     10  C   UNL     1       5.265   1.370   0.895  1.00  0.00     0.000 A 
ATOM     11  C   UNL     1       6.068  -0.782   1.414  1.00  0.00     0.000 A 
ATOM     12  C   UNL     1       5.388   0.346   1.813  1.00  0.00     0.000 A 
ENDBRANCH   6   7
ENDBRANCH   1   6
TORSDOF 4
ENDMDL
MODEL 3
REMARK VINA RESULT:      -6.8      3.403      5.081
REMARK SMILES O=C(O)CCc1ccccc1
REMARK SMILES IDX 4 1 2 2 1 3 3 4 5 6 6 7 7 8 11 9 8 10 10 11 9 12
REMARK H PARENT 3 5
REMARK Flexibility Score: inf
ROOT
ATOM      1  C   UNL     1       5.001   1.796   0.738  1.00  0.00     0.127 C 
ENDROOT
BRANCH   1   2
ATOM      2  C   UNL     1       4.467   1.114   1.931  1.00  0.00     0.303 C 
ATOM      3  O   UNL     1       5.148   0.201   2.470  1.00  0.00    -0.252 OA
BRANCH   2   4
ATOM      4  O   UNL     1       3.225   1.448   2.489  1.00  0.00    -0.481 OA
ATOM      5  H   UNL     1       2.395   1.001   2.124  1.00  0.00     0.296 HD
ENDBRANCH   2   4
ENDBRANCH   1   2
BRANCH   1   6
ATOM      6  C   UNL     1       6.514   1.919   0.778  1.00  0.00     0.047 C 
BRANCH   6   7
ATOM      7  C   UNL     1       7.141   1.135  -0.319  1.00  0.00    -0.047 A 
ATOM      8  C   UNL     1       6.387   0.251  -1.077  1.00  0.00     0.004 A 
ATOM      9  C   UNL     1       8.484   1.231  -0.634  1.00  0.00     0.004 A 
ATOM     10  C   UNL     1       6.940  -0.496  -2.092  1.00  0.00     0.000 A 
ATOM     11  C   UNL     1       9.036   0.482  -1.650  1.00  0.00     0.000 A 
ATOM     12  C   UNL     1       8.282  -0.394  -2.398  1.00  0.00     0.000 A 
ENDBRANCH   6   7
ENDBRANCH   1   6
TORSDOF 4
ENDMDL
MODEL 4
REMARK VINA RESULT:      -6.6      2.014      2.738
REMARK SMILES O=C(O)CCc1ccccc1
REMARK SMILES IDX 4 1 2 2 1 3 3 4 5 6 6 7 7 8 11 9 8 10 10 11 9 12
REMARK H PARENT 3 5
REMARK Flexibility Score: inf
ROOT
ATOM      1  C   UNL     1       8.383   0.286  -2.026  1.00  0.00     0.127 C 
ENDROOT
BRANCH   1   2
ATOM      2  C   UNL     1       9.505   0.364  -1.074  1.00  0.00     0.303 C 
ATOM      3  O   UNL     1       9.506  -0.395  -0.067  1.00  0.00    -0.252 OA
BRANCH   2   4
ATOM      4  O   UNL     1      10.575   1.253  -1.249  1.00  0.00    -0.481 OA
ATOM      5  H   UNL     1      10.901   1.780  -0.451  1.00  0.00     0.296 HD
ENDBRANCH   2   4
ENDBRANCH   1   2
BRANCH   1   6
ATOM      6  C   UNL     1       7.242  -0.568  -1.501  1.00  0.00     0.047 C 
BRANCH   6   7
ATOM      7  C   UNL     1       6.408   0.193  -0.534  1.00  0.00    -0.047 A 
ATOM      8  C   UNL     1       5.839   1.407  -0.893  1.00  0.00     0.004 A 
ATOM      9  C   UNL     1       6.165  -0.248   0.753  1.00  0.00     0.004 A 
ATOM     10  C   UNL     1       5.071   2.140  -0.018  1.00  0.00     0.000 A 
ATOM     11  C   UNL     1       5.395   0.488   1.629  1.00  0.00     0.000 A 
ATOM     12  C   UNL     1       4.834   1.691   1.266  1.00  0.00     0.000 A 
ENDBRANCH   6   7
ENDBRANCH   1   6
TORSDOF 4
ENDMDL
MODEL 5
REMARK VINA RESULT:      -6.6      1.885      2.877
REMARK SMILES O=C(O)CCc1ccccc1
REMARK SMILES IDX 4 1 2 2 1 3 3 4 5 6 6 7 7 8 11 9 8 10 10 11 9 12
REMARK H PARENT 3 5
REMARK Flexibility Score: inf
ROOT
ATOM      1  C   UNL     1       8.162  -1.671   1.152  1.00  0.00     0.127 C 
ENDROOT
BRANCH   1   2
ATOM      2  C   UNL     1       8.508  -2.849   0.338  1.00  0.00     0.303 C 
ATOM      3  O   UNL     1       9.205  -3.765   0.853  1.00  0.00    -0.252 OA
BRANCH   2   4
ATOM      4  O   UNL     1       8.088  -2.989  -0.992  1.00  0.00    -0.481 OA
ATOM      5  H   UNL     1       8.721  -2.714  -1.731  1.00  0.00     0.296 HD
ENDBRANCH   2   4
ENDBRANCH   1   2
BRANCH   1   6
ATOM      6  C   UNL     1       6.666  -1.554   1.386  1.00  0.00     0.047 C 
BRANCH   6   7
ATOM      7  C   UNL     1       6.141  -0.272   0.847  1.00  0.00    -0.047 A 
ATOM      8  C   UNL     1       6.398   0.103  -0.464  1.00  0.00     0.004 A 
ATOM      9  C   UNL     1       5.391   0.608   1.606  1.00  0.00     0.004 A 
ATOM     10  C   UNL     1       5.936   1.288  -0.989  1.00  0.00     0.000 A 
ATOM     11  C   UNL     1       4.928   1.794   1.078  1.00  0.00     0.000 A 
ATOM     12  C   UNL     1       5.189   2.159  -0.223  1.00  0.00     0.000 A 
ENDBRANCH   6   7
ENDBRANCH   1   6
TORSDOF 4
ENDMDL
