@<TRIPOS>MOLECULE
/home/cewinharhar/GITHUB/reincatalyze/data/processed/docking_pred/2023-Apr-25-2248_maxeplen10_maxtrainstep1000_exh16_gamma099_lrac3e-4_lrcr1e-3/46861e00ed193d15618049a480e2ca269f83ce14_ligand_2.pdbqt
 12 12 0 0 0
SMALL
GASTEIGER

@<TRIPOS>ATOM
      1  C          8.1620   -1.6710    1.1520 C.3     1  UNL1        0.1270
      2  C          8.5080   -2.8490    0.3380 C.2     1  UNL1        0.3030
      3  O          9.2050   -3.7650    0.8530 O.2     1  UNL1       -0.2520
      4  O          8.0880   -2.9890   -0.9920 O.3     1  UNL1       -0.4810
      5  H          8.7210   -2.7140   -1.7310 H       1  UNL1        0.2960
      6  C          6.6660   -1.5540    1.3860 C.3     1  UNL1        0.0470
      7  C          6.1410   -0.2720    0.8470 C.2     1  UNL1       -0.0470
      8  C          6.3980    0.1030   -0.4640 C.2     1  UNL1        0.0040
      9  C          5.3910    0.6080    1.6060 C.2     1  UNL1        0.0040
     10  C          5.9360    1.2880   -0.9890 C.2     1  UNL1        0.0000
     11  C          4.9280    1.7940    1.0780 C.2     1  UNL1        0.0000
     12  C          5.1890    2.1590   -0.2230 C.2     1  UNL1        0.0000
@<TRIPOS>BOND
     1     5     4    1
     2     4     2    1
     3    10     8    1
     4    10    12    2
     5     8     7    2
     6    12    11    1
     7     2     3    2
     8     2     1    1
     9     7     6    1
    10     7     9    1
    11    11     9    2
    12     1     6    1
