@<TRIPOS>MOLECULE
/home/cewinharhar/GITHUB/reincatalyze/data/processed/docking_pred/2023-Apr-25-2248_maxeplen10_maxtrainstep1000_exh16_gamma099_lrac3e-4_lrcr1e-3/46861e00ed193d15618049a480e2ca269f83ce14_ligand_2.pdbqt
 12 12 0 0 0
SMALL
GASTEIGER

@<TRIPOS>ATOM
      1  C          8.3830    0.2860   -2.0260 C.3     1  UNL1        0.1270
      2  C          9.5050    0.3640   -1.0740 C.2     1  UNL1        0.3030
      3  O          9.5060   -0.3950   -0.0670 O.2     1  UNL1       -0.2520
      4  O         10.5750    1.2530   -1.2490 O.3     1  UNL1       -0.4810
      5  H         10.9010    1.7800   -0.4510 H       1  UNL1        0.2960
      6  C          7.2420   -0.5680   -1.5010 C.3     1  UNL1        0.0470
      7  C          6.4080    0.1930   -0.5340 C.2     1  UNL1       -0.0470
      8  C          5.8390    1.4070   -0.8930 C.2     1  UNL1        0.0040
      9  C          6.1650   -0.2480    0.7530 C.2     1  UNL1        0.0040
     10  C          5.0710    2.1400   -0.0180 C.2     1  UNL1        0.0000
     11  C          5.3950    0.4880    1.6290 C.2     1  UNL1        0.0000
     12  C          4.8340    1.6910    1.2660 C.2     1  UNL1        0.0000
@<TRIPOS>BOND
     1     1     6    1
     2     1     2    1
     3     6     7    1
     4     4     2    1
     5     4     5    1
     6     2     3    2
     7     8     7    2
     8     8    10    1
     9     7     9    1
    10    10    12    2
    11     9    11    2
    12    12    11    1
