@<TRIPOS>MOLECULE
/home/cewinharhar/GITHUB/reincatalyze/data/processed/docking_pred/2023-Apr-25-2248_maxeplen10_maxtrainstep1000_exh16_gamma099_lrac3e-4_lrcr1e-3/46861e00ed193d15618049a480e2ca269f83ce14_ligand_2.pdbqt
 12 12 0 0 0
SMALL
GASTEIGER

@<TRIPOS>ATOM
      1  C          5.0010    1.7960    0.7380 C.3     1  UNL1        0.1270
      2  C          4.4670    1.1140    1.9310 C.2     1  UNL1        0.3030
      3  O          5.1480    0.2010    2.4700 O.2     1  UNL1       -0.2520
      4  O          3.2250    1.4480    2.4890 O.3     1  UNL1       -0.4810
      5  H          2.3950    1.0010    2.1240 H       1  UNL1        0.2960
      6  C          6.5140    1.9190    0.7780 C.3     1  UNL1        0.0470
      7  C          7.1410    1.1350   -0.3190 C.2     1  UNL1       -0.0470
      8  C          6.3870    0.2510   -1.0770 C.2     1  UNL1        0.0040
      9  C          8.4840    1.2310   -0.6340 C.2     1  UNL1        0.0040
     10  C          6.9400   -0.4960   -2.0920 C.2     1  UNL1        0.0000
     11  C          9.0360    0.4820   -1.6500 C.2     1  UNL1        0.0000
     12  C          8.2820   -0.3940   -2.3980 C.2     1  UNL1        0.0000
@<TRIPOS>BOND
     1    12    10    2
     2    12    11    1
     3    10     8    1
     4    11     9    2
     5     8     7    2
     6     9     7    1
     7     7     6    1
     8     1     6    1
     9     1     2    1
    10     2     3    2
    11     2     4    1
    12     5     4    1
