@<TRIPOS>MOLECULE
/home/cewinharhar/GITHUB/reincatalyze/data/processed/docking_pred/2023-Apr-25-2248_maxeplen10_maxtrainstep1000_exh16_gamma099_lrac3e-4_lrcr1e-3/46aa5159a95d0d08c04f597503a56ad94e9ef6ed_ligand_2.pdbqt
 12 12 0 0 0
SMALL
GASTEIGER

@<TRIPOS>ATOM
      1  C          8.2870    0.1380   -2.1930 C.3     1  UNL1        0.1270
      2  C          9.3820    0.3450   -1.2300 C.2     1  UNL1        0.3030
      3  O          9.4550   -0.4030   -0.2160 O.2     1  UNL1       -0.2520
      4  O         10.3510    1.3440   -1.4010 O.3     1  UNL1       -0.4810
      5  H         10.5760    1.6430   -2.3400 H       1  UNL1        0.2960
      6  C          7.1340   -0.6460   -1.5930 C.3     1  UNL1        0.0470
      7  C          6.3620    0.1900   -0.6360 C.2     1  UNL1       -0.0470
      8  C          5.8550    1.4220   -1.0230 C.2     1  UNL1        0.0040
      9  C          6.1180   -0.1980    0.6680 C.2     1  UNL1        0.0040
     10  C          5.1460    2.2240   -0.1590 C.2     1  UNL1        0.0000
     11  C          5.4070    0.6060    1.5330 C.2     1  UNL1        0.0000
     12  C          4.9080    1.8280    1.1420 C.2     1  UNL1        0.0000
@<TRIPOS>BOND
     1     5     4    1
     2     1     6    1
     3     1     2    1
     4     6     7    1
     5     4     2    1
     6     2     3    2
     7     8     7    2
     8     8    10    1
     9     7     9    1
    10    10    12    2
    11     9    11    2
    12    12    11    1
