@<TRIPOS>MOLECULE
/home/cewinharhar/GITHUB/reincatalyze/data/processed/docking_pred/2023-Apr-25-2248_maxeplen10_maxtrainstep1000_exh16_gamma099_lrac3e-4_lrcr1e-3/46aa5159a95d0d08c04f597503a56ad94e9ef6ed_ligand_2.pdbqt
 12 12 0 0 0
SMALL
GASTEIGER

@<TRIPOS>ATOM
      1  C          8.4190   -0.7620   -2.0010 C.3     1  UNL1        0.1270
      2  C          8.4080   -1.9630   -2.8540 C.2     1  UNL1        0.3030
      3  O          7.3030   -2.4290   -3.2430 O.2     1  UNL1       -0.2520
      4  O          9.5880   -2.6090   -3.2510 O.3     1  UNL1       -0.4810
      5  H          9.5190   -3.4040   -3.8720 H       1  UNL1        0.2960
      6  C          7.1000   -0.0110   -2.0510 C.3     1  UNL1        0.0470
      7  C          6.4920    0.0890   -0.6990 C.2     1  UNL1       -0.0470
      8  C          5.8060    1.2320   -0.3140 C.2     1  UNL1        0.0040
      9  C          6.5810   -0.9240    0.2380 C.2     1  UNL1        0.0040
     10  C          5.2410    1.3590    0.9340 C.2     1  UNL1        0.0000
     11  C          6.0150   -0.7950    1.4880 C.2     1  UNL1        0.0000
     12  C          5.3370    0.3420    1.8630 C.2     1  UNL1        0.0000
@<TRIPOS>BOND
     1     5     4    1
     2     4     2    1
     3     3     2    2
     4     2     1    1
     5     6     1    1
     6     6     7    1
     7     7     8    2
     8     7     9    1
     9     8    10    1
    10     9    11    2
    11    10    12    2
    12    11    12    1
