@<TRIPOS>MOLECULE
/home/cewinharhar/GITHUB/reincatalyze/data/processed/docking_pred/2023-Apr-25-2248_maxeplen10_maxtrainstep1000_exh16_gamma099_lrac3e-4_lrcr1e-3/46aa5159a95d0d08c04f597503a56ad94e9ef6ed_ligand_2.pdbqt
 12 12 0 0 0
SMALL
GASTEIGER

@<TRIPOS>ATOM
      1  C          8.3770   -0.6110   -2.1780 C.3     1  UNL1        0.1270
      2  C          8.4160   -1.8890   -2.9120 C.2     1  UNL1        0.3030
      3  O          9.5220   -2.4760   -3.0600 O.2     1  UNL1       -0.2520
      4  O          7.2620   -2.4770   -3.4510 O.3     1  UNL1       -0.4810
      5  H          6.3900   -1.9680   -3.3980 H       1  UNL1        0.2960
      6  C          6.9810   -0.0150   -2.1390 C.3     1  UNL1        0.0470
      7  C          6.4710    0.0550   -0.7450 C.2     1  UNL1       -0.0470
      8  C          6.6140   -1.0250    0.1160 C.2     1  UNL1        0.0040
      9  C          5.8290    1.1690   -0.2370 C.2     1  UNL1        0.0040
     10  C          6.1430   -0.9960    1.4080 C.2     1  UNL1        0.0000
     11  C          5.3580    1.1970    1.0580 C.2     1  UNL1        0.0000
     12  C          5.5020    0.1220    1.9050 C.2     1  UNL1        0.0000
@<TRIPOS>BOND
     1     4     5    1
     2     4     2    1
     3     3     2    2
     4     2     1    1
     5     1     6    1
     6     6     7    1
     7     7     9    2
     8     7     8    1
     9     9    11    1
    10     8    10    2
    11    11    12    2
    12    10    12    1
