MODEL 1
REMARK VINA RESULT:      -7.3      0.000      0.000
REMARK SMILES O=C(O)CCc1ccccc1
REMARK SMILES IDX 4 1 2 2 1 3 3 4 5 6 6 7 7 8 11 9 8 10 10 11 9 12
REMARK H PARENT 3 5
REMARK Flexibility Score: inf
ROOT
ATOM      1  C   UNL     1       8.377  -0.611  -2.178  1.00  0.00     0.127 C 
ENDROOT
BRANCH   1   2
ATOM      2  C   UNL     1       8.416  -1.889  -2.912  1.00  0.00     0.303 C 
ATOM      3  O   UNL     1       9.522  -2.476  -3.060  1.00  0.00    -0.252 OA
BRANCH   2   4
ATOM      4  O   UNL     1       7.262  -2.477  -3.451  1.00  0.00    -0.481 OA
ATOM      5  H   UNL     1       6.390  -1.968  -3.398  1.00  0.00     0.296 HD
ENDBRANCH   2   4
ENDBRANCH   1   2
BRANCH   1   6
ATOM      6  C   UNL     1       6.981  -0.015  -2.139  1.00  0.00     0.047 C 
BRANCH   6   7
ATOM      7  C   UNL     1       6.471   0.055  -0.745  1.00  0.00    -0.047 A 
ATOM      8  C   UNL     1       6.614  -1.025   0.116  1.00  0.00     0.004 A 
ATOM      9  C   UNL     1       5.829   1.169  -0.237  1.00  0.00     0.004 A 
ATOM     10  C   UNL     1       6.143  -0.996   1.408  1.00  0.00     0.000 A 
ATOM     11  C   UNL     1       5.358   1.197   1.058  1.00  0.00     0.000 A 
ATOM     12  C   UNL     1       5.502   0.122   1.905  1.00  0.00     0.000 A 
ENDBRANCH   6   7
ENDBRANCH   1   6
TORSDOF 4
ENDMDL
MODEL 2
REMARK VINA RESULT:      -7.3      0.197      1.728
REMARK SMILES O=C(O)CCc1ccccc1
REMARK SMILES IDX 4 1 2 2 1 3 3 4 5 6 6 7 7 8 11 9 8 10 10 11 9 12
REMARK H PARENT 3 5
REMARK Flexibility Score: inf
ROOT
ATOM      1  C   UNL     1       8.419  -0.762  -2.001  1.00  0.00     0.127 C 
ENDROOT
BRANCH   1   2
ATOM      2  C   UNL     1       8.408  -1.963  -2.854  1.00  0.00     0.303 C 
ATOM      3  O   UNL     1       7.303  -2.429  -3.243  1.00  0.00    -0.252 OA
BRANCH   2   4
ATOM      4  O   UNL     1       9.588  -2.609  -3.251  1.00  0.00    -0.481 OA
ATOM      5  H   UNL     1       9.519  -3.404  -3.872  1.00  0.00     0.296 HD
ENDBRANCH   2   4
ENDBRANCH   1   2
BRANCH   1   6
ATOM      6  C   UNL     1       7.100  -0.011  -2.051  1.00  0.00     0.047 C 
BRANCH   6   7
ATOM      7  C   UNL     1       6.492   0.089  -0.699  1.00  0.00    -0.047 A 
ATOM      8  C   UNL     1       5.806   1.232  -0.314  1.00  0.00     0.004 A 
ATOM      9  C   UNL     1       6.581  -0.924   0.238  1.00  0.00     0.004 A 
ATOM     10  C   UNL     1       5.241   1.359   0.934  1.00  0.00     0.000 A 
ATOM     11  C   UNL     1       6.015  -0.795   1.488  1.00  0.00     0.000 A 
ATOM     12  C   UNL     1       5.337   0.342   1.863  1.00  0.00     0.000 A 
ENDBRANCH   6   7
ENDBRANCH   1   6
TORSDOF 4
ENDMDL
MODEL 3
REMARK VINA RESULT:      -7.2      0.692      1.647
REMARK SMILES O=C(O)CCc1ccccc1
REMARK SMILES IDX 4 1 2 2 1 3 3 4 5 6 6 7 7 8 11 9 8 10 10 11 9 12
REMARK H PARENT 3 5
REMARK Flexibility Score: inf
ROOT
ATOM      1  C   UNL     1       8.283  -0.976  -1.804  1.00  0.00     0.127 C 
ENDROOT
BRANCH   1   2
ATOM      2  C   UNL     1       8.405  -2.029  -2.828  1.00  0.00     0.303 C 
ATOM      3  O   UNL     1       9.547  -2.490  -3.099  1.00  0.00    -0.252 OA
BRANCH   2   4
ATOM      4  O   UNL     1       7.293  -2.540  -3.513  1.00  0.00    -0.481 OA
ATOM      5  H   UNL     1       7.230  -3.539  -3.655  1.00  0.00     0.296 HD
ENDBRANCH   2   4
ENDBRANCH   1   2
BRANCH   1   6
ATOM      6  C   UNL     1       7.546  -1.461  -0.568  1.00  0.00     0.047 C 
BRANCH   6   7
ATOM      7  C   UNL     1       6.651  -0.402  -0.033  1.00  0.00    -0.047 A 
ATOM      8  C   UNL     1       6.304   0.693  -0.812  1.00  0.00     0.004 A 
ATOM      9  C   UNL     1       6.129  -0.440   1.247  1.00  0.00     0.004 A 
ATOM     10  C   UNL     1       5.486   1.694  -0.342  1.00  0.00     0.000 A 
ATOM     11  C   UNL     1       5.310   0.564   1.717  1.00  0.00     0.000 A 
ATOM     12  C   UNL     1       4.972   1.648   0.938  1.00  0.00     0.000 A 
ENDBRANCH   6   7
ENDBRANCH   1   6
TORSDOF 4
ENDMDL
MODEL 4
REMARK VINA RESULT:      -6.8      3.402      5.067
REMARK SMILES O=C(O)CCc1ccccc1
REMARK SMILES IDX 4 1 2 2 1 3 3 4 5 6 6 7 7 8 11 9 8 10 10 11 9 12
REMARK H PARENT 3 5
REMARK Flexibility Score: inf
ROOT
ATOM      1  C   UNL     1       5.013   1.769   0.726  1.00  0.00     0.127 C 
ENDROOT
BRANCH   1   2
ATOM      2  C   UNL     1       4.467   1.108   1.924  1.00  0.00     0.303 C 
ATOM      3  O   UNL     1       5.135   0.193   2.477  1.00  0.00    -0.252 OA
BRANCH   2   4
ATOM      4  O   UNL     1       3.227   1.463   2.474  1.00  0.00    -0.481 OA
ATOM      5  H   UNL     1       3.152   1.556   3.478  1.00  0.00     0.296 HD
ENDBRANCH   2   4
ENDBRANCH   1   2
BRANCH   1   6
ATOM      6  C   UNL     1       6.526   1.883   0.773  1.00  0.00     0.047 C 
BRANCH   6   7
ATOM      7  C   UNL     1       7.154   1.096  -0.321  1.00  0.00    -0.047 A 
ATOM      8  C   UNL     1       6.412   0.173  -1.044  1.00  0.00     0.004 A 
ATOM      9  C   UNL     1       8.486   1.226  -0.667  1.00  0.00     0.004 A 
ATOM     10  C   UNL     1       6.966  -0.579  -2.055  1.00  0.00     0.000 A 
ATOM     11  C   UNL     1       9.040   0.472  -1.679  1.00  0.00     0.000 A 
ATOM     12  C   UNL     1       8.298  -0.442  -2.392  1.00  0.00     0.000 A 
ENDBRANCH   6   7
ENDBRANCH   1   6
TORSDOF 4
ENDMDL
MODEL 5
REMARK VINA RESULT:      -6.6      1.954      2.692
REMARK SMILES O=C(O)CCc1ccccc1
REMARK SMILES IDX 4 1 2 2 1 3 3 4 5 6 6 7 7 8 11 9 8 10 10 11 9 12
REMARK H PARENT 3 5
REMARK Flexibility Score: inf
ROOT
ATOM      1  C   UNL     1       8.287   0.138  -2.193  1.00  0.00     0.127 C 
ENDROOT
BRANCH   1   2
ATOM      2  C   UNL     1       9.382   0.345  -1.230  1.00  0.00     0.303 C 
ATOM      3  O   UNL     1       9.455  -0.403  -0.216  1.00  0.00    -0.252 OA
BRANCH   2   4
ATOM      4  O   UNL     1      10.351   1.344  -1.401  1.00  0.00    -0.481 OA
ATOM      5  H   UNL     1      10.576   1.643  -2.340  1.00  0.00     0.296 HD
ENDBRANCH   2   4
ENDBRANCH   1   2
BRANCH   1   6
ATOM      6  C   UNL     1       7.134  -0.646  -1.593  1.00  0.00     0.047 C 
BRANCH   6   7
ATOM      7  C   UNL     1       6.362   0.190  -0.636  1.00  0.00    -0.047 A 
ATOM      8  C   UNL     1       5.855   1.422  -1.023  1.00  0.00     0.004 A 
ATOM      9  C   UNL     1       6.118  -0.198   0.668  1.00  0.00     0.004 A 
ATOM     10  C   UNL     1       5.146   2.224  -0.159  1.00  0.00     0.000 A 
ATOM     11  C   UNL     1       5.407   0.606   1.533  1.00  0.00     0.000 A 
ATOM     12  C   UNL     1       4.908   1.828   1.142  1.00  0.00     0.000 A 
ENDBRANCH   6   7
ENDBRANCH   1   6
TORSDOF 4
ENDMDL
