@<TRIPOS>MOLECULE
/home/cewinharhar/GITHUB/reincatalyze/data/processed/docking_pred/2023-Apr-25-2248_maxeplen10_maxtrainstep1000_exh16_gamma099_lrac3e-4_lrcr1e-3/46aa5159a95d0d08c04f597503a56ad94e9ef6ed_ligand_2.pdbqt
 12 12 0 0 0
SMALL
GASTEIGER

@<TRIPOS>ATOM
      1  C          5.0130    1.7690    0.7260 C.3     1  UNL1        0.1270
      2  C          4.4670    1.1080    1.9240 C.2     1  UNL1        0.3030
      3  O          5.1350    0.1930    2.4770 O.2     1  UNL1       -0.2520
      4  O          3.2270    1.4630    2.4740 O.3     1  UNL1       -0.4810
      5  H          3.1520    1.5560    3.4780 H       1  UNL1        0.2960
      6  C          6.5260    1.8830    0.7730 C.3     1  UNL1        0.0470
      7  C          7.1540    1.0960   -0.3210 C.2     1  UNL1       -0.0470
      8  C          6.4120    0.1730   -1.0440 C.2     1  UNL1        0.0040
      9  C          8.4860    1.2260   -0.6670 C.2     1  UNL1        0.0040
     10  C          6.9660   -0.5790   -2.0550 C.2     1  UNL1        0.0000
     11  C          9.0400    0.4720   -1.6790 C.2     1  UNL1        0.0000
     12  C          8.2980   -0.4420   -2.3920 C.2     1  UNL1        0.0000
@<TRIPOS>BOND
     1    12    10    2
     2    12    11    1
     3    10     8    1
     4    11     9    2
     5     8     7    2
     6     9     7    1
     7     7     6    1
     8     1     6    1
     9     1     2    1
    10     2     4    1
    11     2     3    2
    12     4     5    1
