@<TRIPOS>MOLECULE
/home/cewinharhar/GITHUB/reincatalyze/data/processed/docking_pred/2023-Apr-25-2248_maxeplen10_maxtrainstep1000_exh16_gamma099_lrac3e-4_lrcr1e-3/474a1a4d6d459edbbf5721b5d0b831e4cd7af8cc_ligand_2.pdbqt
 12 12 0 0 0
SMALL
GASTEIGER

@<TRIPOS>ATOM
      1  C          8.4420    1.1200   -1.3250 C.3     1  UNL1        0.1270
      2  C          9.6450    0.2890   -1.5080 C.2     1  UNL1        0.3030
      3  O          9.5630   -0.7650   -2.1950 O.2     1  UNL1       -0.2520
      4  O         10.8830    0.6310   -0.9440 O.3     1  UNL1       -0.4810
      5  H         11.5730   -0.0970   -0.8150 H       1  UNL1        0.2960
      6  C          7.1620    0.3200   -1.4910 C.3     1  UNL1        0.0470
      7  C          6.3920    0.2770   -0.2200 C.2     1  UNL1       -0.0470
      8  C          5.5670    1.3320    0.1430 C.2     1  UNL1        0.0040
      9  C          6.4590   -0.7870    0.6600 C.2     1  UNL1        0.0040
     10  C          4.8500    1.3280    1.3180 C.2     1  UNL1        0.0000
     11  C          5.7390   -0.7900    1.8360 C.2     1  UNL1        0.0000
     12  C          4.9240    0.2610    2.1900 C.2     1  UNL1        0.0000
@<TRIPOS>BOND
     1     3     2    2
     2     2     1    1
     3     2     4    1
     4     6     1    1
     5     6     7    1
     6     4     5    1
     7     7     8    2
     8     7     9    1
     9     8    10    1
    10     9    11    2
    11    10    12    2
    12    11    12    1
