@<TRIPOS>MOLECULE
/home/cewinharhar/GITHUB/reincatalyze/data/processed/docking_pred/2023-Apr-25-2248_maxeplen10_maxtrainstep1000_exh16_gamma099_lrac3e-4_lrcr1e-3/474a1a4d6d459edbbf5721b5d0b831e4cd7af8cc_ligand_2.pdbqt
 12 12 0 0 0
SMALL
GASTEIGER

@<TRIPOS>ATOM
      1  C          5.0290    1.8320    0.8290 C.3     1  UNL1        0.1270
      2  C          4.4440    1.1090    1.9720 C.2     1  UNL1        0.3030
      3  O          5.0830    0.1470    2.4800 O.2     1  UNL1       -0.2520
      4  O          3.2000    1.4540    2.5180 O.3     1  UNL1       -0.4810
      5  H          3.1650    1.7770    3.4760 H       1  UNL1        0.2960
      6  C          6.5460    1.8650    0.8860 C.3     1  UNL1        0.0470
      7  C          7.1380    1.2020   -0.3050 C.2     1  UNL1       -0.0470
      8  C          6.3440    0.4680   -1.1740 C.2     1  UNL1        0.0040
      9  C          8.4870    1.2690   -0.6050 C.2     1  UNL1        0.0040
     10  C          6.8640   -0.1660   -2.2800 C.2     1  UNL1        0.0000
     11  C          9.0060    0.6330   -1.7130 C.2     1  UNL1        0.0000
     12  C          8.2120   -0.0950   -2.5700 C.2     1  UNL1        0.0000
@<TRIPOS>BOND
     1    12    10    2
     2    12    11    1
     3    10     8    1
     4    11     9    2
     5     8     7    2
     6     9     7    1
     7     7     6    1
     8     1     6    1
     9     1     2    1
    10     2     3    2
    11     2     4    1
    12     4     5    1
