@<TRIPOS>MOLECULE
/home/cewinharhar/GITHUB/reincatalyze/data/processed/docking_pred/2023-Apr-25-2248_maxeplen10_maxtrainstep1000_exh16_gamma099_lrac3e-4_lrcr1e-3/474a1a4d6d459edbbf5721b5d0b831e4cd7af8cc_ligand_2.pdbqt
 12 12 0 0 0
SMALL
GASTEIGER

@<TRIPOS>ATOM
      1  C          5.0220    1.8430    0.8360 C.3     1  UNL1        0.1270
      2  C          4.4290    1.1180    1.9740 C.2     1  UNL1        0.3030
      3  O          5.0640    0.1560    2.4850 O.2     1  UNL1       -0.2520
      4  O          3.1800    1.4630    2.5100 O.3     1  UNL1       -0.4810
      5  H          3.0830    2.3560    2.9750 H       1  UNL1        0.2960
      6  C          6.5390    1.8590    0.8930 C.3     1  UNL1        0.0470
      7  C          7.1240    1.1850   -0.2950 C.2     1  UNL1       -0.0470
      8  C          8.4850    1.2640   -0.5540 C.2     1  UNL1        0.0040
      9  C          6.3640    0.4660   -1.1990 C.2     1  UNL1        0.0040
     10  C          9.0560    0.6600   -1.6510 C.2     1  UNL1        0.0000
     11  C          6.9370   -0.1370   -2.2970 C.2     1  UNL1        0.0000
     12  C          8.2880   -0.0540   -2.5480 C.2     1  UNL1        0.0000
@<TRIPOS>BOND
     1    12    11    2
     2    12    10    1
     3    11     9    1
     4    10     8    2
     5     9     7    2
     6     8     7    1
     7     7     6    1
     8     1     6    1
     9     1     2    1
    10     2     3    2
    11     2     4    1
    12     4     5    1
