@<TRIPOS>MOLECULE
/home/cewinharhar/GITHUB/reincatalyze/data/processed/docking_pred/2023-Apr-25-2248_maxeplen10_maxtrainstep1000_exh16_gamma099_lrac3e-4_lrcr1e-3/474a1a4d6d459edbbf5721b5d0b831e4cd7af8cc_ligand_2.pdbqt
 12 12 0 0 0
SMALL
GASTEIGER

@<TRIPOS>ATOM
      1  C          5.4230   -0.0080    1.6410 C.3     1  UNL1        0.1270
      2  C          4.5820    1.1830    1.8530 C.2     1  UNL1        0.3030
      3  O          4.9280    2.2780    1.3310 O.2     1  UNL1       -0.2520
      4  O          3.4060    1.1420    2.6150 O.3     1  UNL1       -0.4810
      5  H          3.3810    1.6440    3.4930 H       1  UNL1        0.2960
      6  C          6.8950    0.3440    1.5130 C.3     1  UNL1        0.0470
      7  C          7.3420    0.2600    0.0980 C.2     1  UNL1       -0.0470
      8  C          8.6730    0.4630   -0.2370 C.2     1  UNL1        0.0040
      9  C          6.4750   -0.0090   -0.9460 C.2     1  UNL1        0.0040
     10  C          9.1160    0.4020   -1.5380 C.2     1  UNL1        0.0000
     11  C          6.9210   -0.0700   -2.2490 C.2     1  UNL1        0.0000
     12  C          8.2430    0.1340   -2.5730 C.2     1  UNL1        0.0000
@<TRIPOS>BOND
     1    12    11    2
     2    12    10    1
     3    11     9    1
     4    10     8    2
     5     9     7    2
     6     8     7    1
     7     7     6    1
     8     3     2    2
     9     6     1    1
    10     1     2    1
    11     2     4    1
    12     4     5    1
