@<TRIPOS>MOLECULE
/home/cewinharhar/GITHUB/reincatalyze/data/processed/docking_pred/2023-Apr-25-2248_maxeplen10_maxtrainstep1000_exh16_gamma099_lrac3e-4_lrcr1e-3/474a1a4d6d459edbbf5721b5d0b831e4cd7af8cc_ligand_2.pdbqt
 12 12 0 0 0
SMALL
GASTEIGER

@<TRIPOS>ATOM
      1  C          8.2170    1.0110   -1.7660 C.3     1  UNL1        0.1270
      2  C          9.4650    0.2300   -1.6930 C.2     1  UNL1        0.3030
      3  O          9.5240   -0.8860   -2.2760 O.2     1  UNL1       -0.2520
      4  O         10.5930    0.6880   -0.9970 O.3     1  UNL1       -0.4810
      5  H         11.1750    0.0110   -0.5210 H       1  UNL1        0.2960
      6  C          6.9840    0.1250   -1.7340 C.3     1  UNL1        0.0470
      7  C          6.3590    0.1310   -0.3850 C.2     1  UNL1       -0.0470
      8  C          6.4870   -0.9620    0.4590 C.2     1  UNL1        0.0040
      9  C          5.6220    1.1990    0.0930 C.2     1  UNL1        0.0040
     10  C          5.9120   -0.9920    1.7090 C.2     1  UNL1        0.0000
     11  C          5.0460    1.1680    1.3450 C.2     1  UNL1        0.0000
     12  C          5.1770    0.0790    2.1760 C.2     1  UNL1        0.0000
@<TRIPOS>BOND
     1     3     2    2
     2     1     6    1
     3     1     2    1
     4     6     7    1
     5     2     4    1
     6     4     5    1
     7     7     9    2
     8     7     8    1
     9     9    11    1
    10     8    10    2
    11    11    12    2
    12    10    12    1
