MODEL 1
REMARK VINA RESULT:      -6.9      0.000      0.000
REMARK SMILES O=C(O)CCc1ccccc1
REMARK SMILES IDX 4 1 2 2 1 3 3 4 5 6 6 7 7 8 11 9 8 10 10 11 9 12
REMARK H PARENT 3 5
REMARK Flexibility Score: inf
ROOT
ATOM      1  C   UNL     1       8.217   1.011  -1.766  1.00  0.00     0.127 C 
ENDROOT
BRANCH   1   2
ATOM      2  C   UNL     1       9.465   0.230  -1.693  1.00  0.00     0.303 C 
ATOM      3  O   UNL     1       9.524  -0.886  -2.276  1.00  0.00    -0.252 OA
BRANCH   2   4
ATOM      4  O   UNL     1      10.593   0.688  -0.997  1.00  0.00    -0.481 OA
ATOM      5  H   UNL     1      11.175   0.011  -0.521  1.00  0.00     0.296 HD
ENDBRANCH   2   4
ENDBRANCH   1   2
BRANCH   1   6
ATOM      6  C   UNL     1       6.984   0.125  -1.734  1.00  0.00     0.047 C 
BRANCH   6   7
ATOM      7  C   UNL     1       6.359   0.131  -0.385  1.00  0.00    -0.047 A 
ATOM      8  C   UNL     1       6.487  -0.962   0.459  1.00  0.00     0.004 A 
ATOM      9  C   UNL     1       5.622   1.199   0.093  1.00  0.00     0.004 A 
ATOM     10  C   UNL     1       5.912  -0.992   1.709  1.00  0.00     0.000 A 
ATOM     11  C   UNL     1       5.046   1.168   1.345  1.00  0.00     0.000 A 
ATOM     12  C   UNL     1       5.177   0.079   2.176  1.00  0.00     0.000 A 
ENDBRANCH   6   7
ENDBRANCH   1   6
TORSDOF 4
ENDMDL
MODEL 2
REMARK VINA RESULT:      -6.9      0.296      1.449
REMARK SMILES O=C(O)CCc1ccccc1
REMARK SMILES IDX 4 1 2 2 1 3 3 4 5 6 6 7 7 8 11 9 8 10 10 11 9 12
REMARK H PARENT 3 5
REMARK Flexibility Score: inf
ROOT
ATOM      1  C   UNL     1       8.442   1.120  -1.325  1.00  0.00     0.127 C 
ENDROOT
BRANCH   1   2
ATOM      2  C   UNL     1       9.645   0.289  -1.508  1.00  0.00     0.303 C 
ATOM      3  O   UNL     1       9.563  -0.765  -2.195  1.00  0.00    -0.252 OA
BRANCH   2   4
ATOM      4  O   UNL     1      10.883   0.631  -0.944  1.00  0.00    -0.481 OA
ATOM      5  H   UNL     1      11.573  -0.097  -0.815  1.00  0.00     0.296 HD
ENDBRANCH   2   4
ENDBRANCH   1   2
BRANCH   1   6
ATOM      6  C   UNL     1       7.162   0.320  -1.491  1.00  0.00     0.047 C 
BRANCH   6   7
ATOM      7  C   UNL     1       6.392   0.277  -0.220  1.00  0.00    -0.047 A 
ATOM      8  C   UNL     1       5.567   1.332   0.143  1.00  0.00     0.004 A 
ATOM      9  C   UNL     1       6.459  -0.787   0.660  1.00  0.00     0.004 A 
ATOM     10  C   UNL     1       4.850   1.328   1.318  1.00  0.00     0.000 A 
ATOM     11  C   UNL     1       5.739  -0.790   1.836  1.00  0.00     0.000 A 
ATOM     12  C   UNL     1       4.924   0.261   2.190  1.00  0.00     0.000 A 
ENDBRANCH   6   7
ENDBRANCH   1   6
TORSDOF 4
ENDMDL
MODEL 3
REMARK VINA RESULT:      -6.9      3.314      4.934
REMARK SMILES O=C(O)CCc1ccccc1
REMARK SMILES IDX 4 1 2 2 1 3 3 4 5 6 6 7 7 8 11 9 8 10 10 11 9 12
REMARK H PARENT 3 5
REMARK Flexibility Score: inf
ROOT
ATOM      1  C   UNL     1       5.022   1.843   0.836  1.00  0.00     0.127 C 
ENDROOT
BRANCH   1   2
ATOM      2  C   UNL     1       4.429   1.118   1.974  1.00  0.00     0.303 C 
ATOM      3  O   UNL     1       5.064   0.156   2.485  1.00  0.00    -0.252 OA
BRANCH   2   4
ATOM      4  O   UNL     1       3.180   1.463   2.510  1.00  0.00    -0.481 OA
ATOM      5  H   UNL     1       3.083   2.356   2.975  1.00  0.00     0.296 HD
ENDBRANCH   2   4
ENDBRANCH   1   2
BRANCH   1   6
ATOM      6  C   UNL     1       6.539   1.859   0.893  1.00  0.00     0.047 C 
BRANCH   6   7
ATOM      7  C   UNL     1       7.124   1.185  -0.295  1.00  0.00    -0.047 A 
ATOM      8  C   UNL     1       8.485   1.264  -0.554  1.00  0.00     0.004 A 
ATOM      9  C   UNL     1       6.364   0.466  -1.199  1.00  0.00     0.004 A 
ATOM     10  C   UNL     1       9.056   0.660  -1.651  1.00  0.00     0.000 A 
ATOM     11  C   UNL     1       6.937  -0.137  -2.297  1.00  0.00     0.000 A 
ATOM     12  C   UNL     1       8.288  -0.054  -2.548  1.00  0.00     0.000 A 
ENDBRANCH   6   7
ENDBRANCH   1   6
TORSDOF 4
ENDMDL
MODEL 4
REMARK VINA RESULT:      -6.9      3.308      4.935
REMARK SMILES O=C(O)CCc1ccccc1
REMARK SMILES IDX 4 1 2 2 1 3 3 4 5 6 6 7 7 8 11 9 8 10 10 11 9 12
REMARK H PARENT 3 5
REMARK Flexibility Score: inf
ROOT
ATOM      1  C   UNL     1       5.029   1.832   0.829  1.00  0.00     0.127 C 
ENDROOT
BRANCH   1   2
ATOM      2  C   UNL     1       4.444   1.109   1.972  1.00  0.00     0.303 C 
ATOM      3  O   UNL     1       5.083   0.147   2.480  1.00  0.00    -0.252 OA
BRANCH   2   4
ATOM      4  O   UNL     1       3.200   1.454   2.518  1.00  0.00    -0.481 OA
ATOM      5  H   UNL     1       3.165   1.777   3.476  1.00  0.00     0.296 HD
ENDBRANCH   2   4
ENDBRANCH   1   2
BRANCH   1   6
ATOM      6  C   UNL     1       6.546   1.865   0.886  1.00  0.00     0.047 C 
BRANCH   6   7
ATOM      7  C   UNL     1       7.138   1.202  -0.305  1.00  0.00    -0.047 A 
ATOM      8  C   UNL     1       6.344   0.468  -1.174  1.00  0.00     0.004 A 
ATOM      9  C   UNL     1       8.487   1.269  -0.605  1.00  0.00     0.004 A 
ATOM     10  C   UNL     1       6.864  -0.166  -2.280  1.00  0.00     0.000 A 
ATOM     11  C   UNL     1       9.006   0.633  -1.713  1.00  0.00     0.000 A 
ATOM     12  C   UNL     1       8.212  -0.095  -2.570  1.00  0.00     0.000 A 
ENDBRANCH   6   7
ENDBRANCH   1   6
TORSDOF 4
ENDMDL
MODEL 5
REMARK VINA RESULT:      -6.5      3.231      4.879
REMARK SMILES O=C(O)CCc1ccccc1
REMARK SMILES IDX 4 1 2 2 1 3 3 4 5 6 6 7 7 8 11 9 8 10 10 11 9 12
REMARK H PARENT 3 5
REMARK Flexibility Score: inf
ROOT
ATOM      1  C   UNL     1       5.423  -0.008   1.641  1.00  0.00     0.127 C 
ENDROOT
BRANCH   1   2
ATOM      2  C   UNL     1       4.582   1.183   1.853  1.00  0.00     0.303 C 
ATOM      3  O   UNL     1       4.928   2.278   1.331  1.00  0.00    -0.252 OA
BRANCH   2   4
ATOM      4  O   UNL     1       3.406   1.142   2.615  1.00  0.00    -0.481 OA
ATOM      5  H   UNL     1       3.381   1.644   3.493  1.00  0.00     0.296 HD
ENDBRANCH   2   4
ENDBRANCH   1   2
BRANCH   1   6
ATOM      6  C   UNL     1       6.895   0.344   1.513  1.00  0.00     0.047 C 
BRANCH   6   7
ATOM      7  C   UNL     1       7.342   0.260   0.098  1.00  0.00    -0.047 A 
ATOM      8  C   UNL     1       8.673   0.463  -0.237  1.00  0.00     0.004 A 
ATOM      9  C   UNL     1       6.475  -0.009  -0.946  1.00  0.00     0.004 A 
ATOM     10  C   UNL     1       9.116   0.402  -1.538  1.00  0.00     0.000 A 
ATOM     11  C   UNL     1       6.921  -0.070  -2.249  1.00  0.00     0.000 A 
ATOM     12  C   UNL     1       8.243   0.134  -2.573  1.00  0.00     0.000 A 
ENDBRANCH   6   7
ENDBRANCH   1   6
TORSDOF 4
ENDMDL
