MODEL 1
REMARK VINA RESULT:      -7.3      0.000      0.000
REMARK SMILES O=C(O)CCc1ccccc1
REMARK SMILES IDX 4 1 2 2 1 3 3 4 5 6 6 7 7 8 11 9 8 10 10 11 9 12
REMARK H PARENT 3 5
REMARK Flexibility Score: inf
ROOT
ATOM      1  C   UNL     1       8.408  -0.611  -2.181  1.00  0.00     0.127 C 
ENDROOT
BRANCH   1   2
ATOM      2  C   UNL     1       8.446  -1.886  -2.919  1.00  0.00     0.303 C 
ATOM      3  O   UNL     1       9.554  -2.462  -3.091  1.00  0.00    -0.252 OA
BRANCH   2   4
ATOM      4  O   UNL     1       7.288  -2.485  -3.437  1.00  0.00    -0.481 OA
ATOM      5  H   UNL     1       6.403  -2.013  -3.312  1.00  0.00     0.296 HD
ENDBRANCH   2   4
ENDBRANCH   1   2
BRANCH   1   6
ATOM      6  C   UNL     1       7.017  -0.004  -2.155  1.00  0.00     0.047 C 
BRANCH   6   7
ATOM      7  C   UNL     1       6.497   0.078  -0.765  1.00  0.00    -0.047 A 
ATOM      8  C   UNL     1       6.614  -1.002   0.099  1.00  0.00     0.004 A 
ATOM      9  C   UNL     1       5.871   1.205  -0.265  1.00  0.00     0.004 A 
ATOM     10  C   UNL     1       6.134  -0.961   1.388  1.00  0.00     0.000 A 
ATOM     11  C   UNL     1       5.391   1.244   1.026  1.00  0.00     0.000 A 
ATOM     12  C   UNL     1       5.510   0.169   1.877  1.00  0.00     0.000 A 
ENDBRANCH   6   7
ENDBRANCH   1   6
TORSDOF 4
ENDMDL
MODEL 2
REMARK VINA RESULT:      -7.3      0.160      1.725
REMARK SMILES O=C(O)CCc1ccccc1
REMARK SMILES IDX 4 1 2 2 1 3 3 4 5 6 6 7 7 8 11 9 8 10 10 11 9 12
REMARK H PARENT 3 5
REMARK Flexibility Score: inf
ROOT
ATOM      1  C   UNL     1       8.438  -0.693  -2.084  1.00  0.00     0.127 C 
ENDROOT
BRANCH   1   2
ATOM      2  C   UNL     1       8.413  -1.938  -2.872  1.00  0.00     0.303 C 
ATOM      3  O   UNL     1       7.301  -2.418  -3.224  1.00  0.00    -0.252 OA
BRANCH   2   4
ATOM      4  O   UNL     1       9.586  -2.609  -3.248  1.00  0.00    -0.481 OA
ATOM      5  H   UNL     1      10.267  -2.828  -2.533  1.00  0.00     0.296 HD
ENDBRANCH   2   4
ENDBRANCH   1   2
BRANCH   1   6
ATOM      6  C   UNL     1       7.104   0.032  -2.114  1.00  0.00     0.047 C 
BRANCH   6   7
ATOM      7  C   UNL     1       6.511   0.113  -0.753  1.00  0.00    -0.047 A 
ATOM      8  C   UNL     1       5.814   1.243  -0.351  1.00  0.00     0.004 A 
ATOM      9  C   UNL     1       6.626  -0.906   0.175  1.00  0.00     0.004 A 
ATOM     10  C   UNL     1       5.263   1.353   0.905  1.00  0.00     0.000 A 
ATOM     11  C   UNL     1       6.073  -0.794   1.433  1.00  0.00     0.000 A 
ATOM     12  C   UNL     1       5.384   0.331   1.825  1.00  0.00     0.000 A 
ENDBRANCH   6   7
ENDBRANCH   1   6
TORSDOF 4
ENDMDL
MODEL 3
REMARK VINA RESULT:      -7.2      0.698      1.248
REMARK SMILES O=C(O)CCc1ccccc1
REMARK SMILES IDX 4 1 2 2 1 3 3 4 5 6 6 7 7 8 11 9 8 10 10 11 9 12
REMARK H PARENT 3 5
REMARK Flexibility Score: inf
ROOT
ATOM      1  C   UNL     1       8.255  -0.993  -1.832  1.00  0.00     0.127 C 
ENDROOT
BRANCH   1   2
ATOM      2  C   UNL     1       8.348  -2.080  -2.822  1.00  0.00     0.303 C 
ATOM      3  O   UNL     1       9.462  -2.638  -3.016  1.00  0.00    -0.252 OA
BRANCH   2   4
ATOM      4  O   UNL     1       7.237  -2.520  -3.556  1.00  0.00    -0.481 OA
ATOM      5  H   UNL     1       6.337  -2.555  -3.097  1.00  0.00     0.296 HD
ENDBRANCH   2   4
ENDBRANCH   1   2
BRANCH   1   6
ATOM      6  C   UNL     1       7.538  -1.428  -0.566  1.00  0.00     0.047 C 
BRANCH   6   7
ATOM      7  C   UNL     1       6.650  -0.349  -0.059  1.00  0.00    -0.047 A 
ATOM      8  C   UNL     1       6.134  -0.403   1.228  1.00  0.00     0.004 A 
ATOM      9  C   UNL     1       6.286   0.743  -0.826  1.00  0.00     0.004 A 
ATOM     10  C   UNL     1       5.302   0.574   1.723  1.00  0.00     0.000 A 
ATOM     11  C   UNL     1       5.452   1.721  -0.329  1.00  0.00     0.000 A 
ATOM     12  C   UNL     1       4.943   1.659   0.949  1.00  0.00     0.000 A 
ENDBRANCH   6   7
ENDBRANCH   1   6
TORSDOF 4
ENDMDL
MODEL 4
REMARK VINA RESULT:      -7.2      0.685      1.646
REMARK SMILES O=C(O)CCc1ccccc1
REMARK SMILES IDX 4 1 2 2 1 3 3 4 5 6 6 7 7 8 11 9 8 10 10 11 9 12
REMARK H PARENT 3 5
REMARK Flexibility Score: inf
ROOT
ATOM      1  C   UNL     1       8.061  -0.882  -1.982  1.00  0.00     0.127 C 
ENDROOT
BRANCH   1   2
ATOM      2  C   UNL     1       8.293  -1.987  -2.929  1.00  0.00     0.303 C 
ATOM      3  O   UNL     1       9.470  -2.402  -3.109  1.00  0.00    -0.252 OA
BRANCH   2   4
ATOM      4  O   UNL     1       7.247  -2.597  -3.637  1.00  0.00    -0.481 OA
ATOM      5  H   UNL     1       6.487  -2.019  -3.970  1.00  0.00     0.296 HD
ENDBRANCH   2   4
ENDBRANCH   1   2
BRANCH   1   6
ATOM      6  C   UNL     1       7.407  -1.356  -0.696  1.00  0.00     0.047 C 
BRANCH   6   7
ATOM      7  C   UNL     1       6.555  -0.290  -0.107  1.00  0.00    -0.047 A 
ATOM      8  C   UNL     1       6.201   0.825  -0.853  1.00  0.00     0.004 A 
ATOM      9  C   UNL     1       6.083  -0.341   1.192  1.00  0.00     0.004 A 
ATOM     10  C   UNL     1       5.422   1.834  -0.334  1.00  0.00     0.000 A 
ATOM     11  C   UNL     1       5.303   0.670   1.710  1.00  0.00     0.000 A 
ATOM     12  C   UNL     1       4.957   1.774   0.964  1.00  0.00     0.000 A 
ENDBRANCH   6   7
ENDBRANCH   1   6
TORSDOF 4
ENDMDL
MODEL 5
REMARK VINA RESULT:      -6.8      3.398      5.094
REMARK SMILES O=C(O)CCc1ccccc1
REMARK SMILES IDX 4 1 2 2 1 3 3 4 5 6 6 7 7 8 11 9 8 10 10 11 9 12
REMARK H PARENT 3 5
REMARK Flexibility Score: inf
ROOT
ATOM      1  C   UNL     1       4.985   1.755   0.707  1.00  0.00     0.127 C 
ENDROOT
BRANCH   1   2
ATOM      2  C   UNL     1       4.465   1.102   1.922  1.00  0.00     0.303 C 
ATOM      3  O   UNL     1       5.154   0.203   2.476  1.00  0.00    -0.252 OA
BRANCH   2   4
ATOM      4  O   UNL     1       3.229   1.448   2.486  1.00  0.00    -0.481 OA
ATOM      5  H   UNL     1       3.075   2.409   2.759  1.00  0.00     0.296 HD
ENDBRANCH   2   4
ENDBRANCH   1   2
BRANCH   1   6
ATOM      6  C   UNL     1       6.497   1.893   0.732  1.00  0.00     0.047 C 
BRANCH   6   7
ATOM      7  C   UNL     1       7.123   1.084  -0.347  1.00  0.00    -0.047 A 
ATOM      8  C   UNL     1       8.474   1.216  -0.636  1.00  0.00     0.004 A 
ATOM      9  C   UNL     1       6.411   0.181  -1.114  1.00  0.00     0.004 A 
ATOM     10  C   UNL     1       9.081   0.490  -1.635  1.00  0.00     0.000 A 
ATOM     11  C   UNL     1       7.021  -0.546  -2.114  1.00  0.00     0.000 A 
ATOM     12  C   UNL     1       8.361  -0.409  -2.396  1.00  0.00     0.000 A 
ENDBRANCH   6   7
ENDBRANCH   1   6
TORSDOF 4
ENDMDL
