@<TRIPOS>MOLECULE
/home/cewinharhar/GITHUB/reincatalyze/data/processed/docking_pred/2023-Apr-25-2248_maxeplen10_maxtrainstep1000_exh16_gamma099_lrac3e-4_lrcr1e-3/4a3a178b6a4326eb13634b12f3ce9c4ec26f8538_ligand_2.pdbqt
 12 12 0 0 0
SMALL
GASTEIGER

@<TRIPOS>ATOM
      1  C          8.2550   -0.9930   -1.8320 C.3     1  UNL1        0.1270
      2  C          8.3480   -2.0800   -2.8220 C.2     1  UNL1        0.3030
      3  O          9.4620   -2.6380   -3.0160 O.2     1  UNL1       -0.2520
      4  O          7.2370   -2.5200   -3.5560 O.3     1  UNL1       -0.4810
      5  H          6.3370   -2.5550   -3.0970 H       1  UNL1        0.2960
      6  C          7.5380   -1.4280   -0.5660 C.3     1  UNL1        0.0470
      7  C          6.6500   -0.3490   -0.0590 C.2     1  UNL1       -0.0470
      8  C          6.1340   -0.4030    1.2280 C.2     1  UNL1        0.0040
      9  C          6.2860    0.7430   -0.8260 C.2     1  UNL1        0.0040
     10  C          5.3020    0.5740    1.7230 C.2     1  UNL1        0.0000
     11  C          5.4520    1.7210   -0.3290 C.2     1  UNL1        0.0000
     12  C          4.9430    1.6590    0.9490 C.2     1  UNL1        0.0000
@<TRIPOS>BOND
     1     4     5    1
     2     4     2    1
     3     3     2    2
     4     2     1    1
     5     1     6    1
     6     9    11    1
     7     9     7    2
     8     6     7    1
     9    11    12    2
    10     7     8    1
    11    12    10    1
    12     8    10    2
