@<TRIPOS>MOLECULE
/home/cewinharhar/GITHUB/reincatalyze/data/processed/docking_pred/2023-Apr-25-2248_maxeplen10_maxtrainstep1000_exh16_gamma099_lrac3e-4_lrcr1e-3/4a3a178b6a4326eb13634b12f3ce9c4ec26f8538_ligand_2.pdbqt
 12 12 0 0 0
SMALL
GASTEIGER

@<TRIPOS>ATOM
      1  C          8.4380   -0.6930   -2.0840 C.3     1  UNL1        0.1270
      2  C          8.4130   -1.9380   -2.8720 C.2     1  UNL1        0.3030
      3  O          7.3010   -2.4180   -3.2240 O.2     1  UNL1       -0.2520
      4  O          9.5860   -2.6090   -3.2480 O.3     1  UNL1       -0.4810
      5  H         10.2670   -2.8280   -2.5330 H       1  UNL1        0.2960
      6  C          7.1040    0.0320   -2.1140 C.3     1  UNL1        0.0470
      7  C          6.5110    0.1130   -0.7530 C.2     1  UNL1       -0.0470
      8  C          5.8140    1.2430   -0.3510 C.2     1  UNL1        0.0040
      9  C          6.6260   -0.9060    0.1750 C.2     1  UNL1        0.0040
     10  C          5.2630    1.3530    0.9050 C.2     1  UNL1        0.0000
     11  C          6.0730   -0.7940    1.4330 C.2     1  UNL1        0.0000
     12  C          5.3840    0.3310    1.8250 C.2     1  UNL1        0.0000
@<TRIPOS>BOND
     1     4     2    1
     2     4     5    1
     3     3     2    2
     4     2     1    1
     5     6     1    1
     6     6     7    1
     7     7     8    2
     8     7     9    1
     9     8    10    1
    10     9    11    2
    11    10    12    2
    12    11    12    1
