@<TRIPOS>MOLECULE
/home/cewinharhar/GITHUB/reincatalyze/data/processed/docking_pred/2023-Apr-25-2248_maxeplen10_maxtrainstep1000_exh16_gamma099_lrac3e-4_lrcr1e-3/4a3a178b6a4326eb13634b12f3ce9c4ec26f8538_ligand_2.pdbqt
 12 12 0 0 0
SMALL
GASTEIGER

@<TRIPOS>ATOM
      1  C          4.9850    1.7550    0.7070 C.3     1  UNL1        0.1270
      2  C          4.4650    1.1020    1.9220 C.2     1  UNL1        0.3030
      3  O          5.1540    0.2030    2.4760 O.2     1  UNL1       -0.2520
      4  O          3.2290    1.4480    2.4860 O.3     1  UNL1       -0.4810
      5  H          3.0750    2.4090    2.7590 H       1  UNL1        0.2960
      6  C          6.4970    1.8930    0.7320 C.3     1  UNL1        0.0470
      7  C          7.1230    1.0840   -0.3470 C.2     1  UNL1       -0.0470
      8  C          8.4740    1.2160   -0.6360 C.2     1  UNL1        0.0040
      9  C          6.4110    0.1810   -1.1140 C.2     1  UNL1        0.0040
     10  C          9.0810    0.4900   -1.6350 C.2     1  UNL1        0.0000
     11  C          7.0210   -0.5460   -2.1140 C.2     1  UNL1        0.0000
     12  C          8.3610   -0.4090   -2.3960 C.2     1  UNL1        0.0000
@<TRIPOS>BOND
     1    12    11    2
     2    12    10    1
     3    11     9    1
     4    10     8    2
     5     9     7    2
     6     8     7    1
     7     7     6    1
     8     1     6    1
     9     1     2    1
    10     2     3    2
    11     2     4    1
    12     4     5    1
