@<TRIPOS>MOLECULE
/home/cewinharhar/GITHUB/reincatalyze/data/processed/docking_pred/2023-Apr-25-2248_maxeplen10_maxtrainstep1000_exh16_gamma099_lrac3e-4_lrcr1e-3/4a3a178b6a4326eb13634b12f3ce9c4ec26f8538_ligand_2.pdbqt
 12 12 0 0 0
SMALL
GASTEIGER

@<TRIPOS>ATOM
      1  C          8.0610   -0.8820   -1.9820 C.3     1  UNL1        0.1270
      2  C          8.2930   -1.9870   -2.9290 C.2     1  UNL1        0.3030
      3  O          9.4700   -2.4020   -3.1090 O.2     1  UNL1       -0.2520
      4  O          7.2470   -2.5970   -3.6370 O.3     1  UNL1       -0.4810
      5  H          6.4870   -2.0190   -3.9700 H       1  UNL1        0.2960
      6  C          7.4070   -1.3560   -0.6960 C.3     1  UNL1        0.0470
      7  C          6.5550   -0.2900   -0.1070 C.2     1  UNL1       -0.0470
      8  C          6.2010    0.8250   -0.8530 C.2     1  UNL1        0.0040
      9  C          6.0830   -0.3410    1.1920 C.2     1  UNL1        0.0040
     10  C          5.4220    1.8340   -0.3340 C.2     1  UNL1        0.0000
     11  C          5.3030    0.6700    1.7100 C.2     1  UNL1        0.0000
     12  C          4.9570    1.7740    0.9640 C.2     1  UNL1        0.0000
@<TRIPOS>BOND
     1     5     4    1
     2     4     2    1
     3     3     2    2
     4     2     1    1
     5     1     6    1
     6     8    10    1
     7     8     7    2
     8     6     7    1
     9    10    12    2
    10     7     9    1
    11    12    11    1
    12     9    11    2
