@<TRIPOS>MOLECULE
/home/cewinharhar/GITHUB/reincatalyze/data/processed/docking_pred/2023-Apr-25-2248_maxeplen10_maxtrainstep1000_exh16_gamma099_lrac3e-4_lrcr1e-3/4c3a486d5bbb1ad3c8ce5b6da142191fd088767a_ligand_2.pdbqt
 12 12 0 0 0
SMALL
GASTEIGER

@<TRIPOS>ATOM
      1  C          8.0020   -2.0570    0.7940 C.3     1  UNL1        0.1270
      2  C          8.3190   -3.4750    1.0410 C.2     1  UNL1        0.3030
      3  O          9.4730   -3.9010    0.7650 O.2     1  UNL1       -0.2520
      4  O          7.3800   -4.3690    1.5770 O.3     1  UNL1       -0.4810
      5  H          7.0120   -5.0970    0.9800 H       1  UNL1        0.2960
      6  C          6.7070   -1.6330    1.4630 C.3     1  UNL1        0.0470
      7  C          6.1960   -0.3650    0.8810 C.2     1  UNL1       -0.0470
      8  C          6.4710   -0.0300   -0.4370 C.2     1  UNL1        0.0040
      9  C          5.4430    0.5410    1.6040 C.2     1  UNL1        0.0040
     10  C          6.0220    1.1410   -1.0030 C.2     1  UNL1        0.0000
     11  C          4.9930    1.7140    1.0370 C.2     1  UNL1        0.0000
     12  C          5.2720    2.0400   -0.2710 C.2     1  UNL1        0.0000
@<TRIPOS>BOND
     1    10     8    1
     2    10    12    2
     3     8     7    2
     4    12    11    1
     5     3     2    2
     6     1     2    1
     7     1     6    1
     8     7     6    1
     9     7     9    1
    10     5     4    1
    11    11     9    2
    12     2     4    1
