@<TRIPOS>MOLECULE
/home/cewinharhar/GITHUB/reincatalyze/data/processed/docking_pred/2023-Apr-25-2248_maxeplen10_maxtrainstep1000_exh16_gamma099_lrac3e-4_lrcr1e-3/4c3a486d5bbb1ad3c8ce5b6da142191fd088767a_ligand_2.pdbqt
 12 12 0 0 0
SMALL
GASTEIGER

@<TRIPOS>ATOM
      1  C          8.3990   -0.6350   -2.1580 C.3     1  UNL1        0.1270
      2  C          8.4190   -1.9080   -2.9000 C.2     1  UNL1        0.3030
      3  O          7.3260   -2.4380   -3.2370 O.2     1  UNL1       -0.2520
      4  O          9.6160   -2.5520   -3.2470 O.3     1  UNL1       -0.4810
      5  H          9.6750   -3.0090   -4.1470 H       1  UNL1        0.2960
      6  C          7.0190   -0.0010   -2.1450 C.3     1  UNL1        0.0470
      7  C          6.4900    0.0950   -0.7590 C.2     1  UNL1       -0.0470
      8  C          6.5960   -0.9780    0.1140 C.2     1  UNL1        0.0040
      9  C          5.8660    1.2290   -0.2730 C.2     1  UNL1        0.0040
     10  C          6.1070   -0.9250    1.3990 C.2     1  UNL1        0.0000
     11  C          5.3760    1.2810    1.0150 C.2     1  UNL1        0.0000
     12  C          5.4840    0.2110    1.8750 C.2     1  UNL1        0.0000
@<TRIPOS>BOND
     1     5     4    1
     2     4     2    1
     3     3     2    2
     4     2     1    1
     5     1     6    1
     6     6     7    1
     7     7     9    2
     8     7     8    1
     9     9    11    1
    10     8    10    2
    11    11    12    2
    12    10    12    1
