@<TRIPOS>MOLECULE
/home/cewinharhar/GITHUB/reincatalyze/data/processed/docking_pred/2023-Apr-25-2248_maxeplen10_maxtrainstep1000_exh16_gamma099_lrac3e-4_lrcr1e-3/4c3a486d5bbb1ad3c8ce5b6da142191fd088767a_ligand_2.pdbqt
 12 12 0 0 0
SMALL
GASTEIGER

@<TRIPOS>ATOM
      1  C          4.9870    1.7780    0.7210 C.3     1  UNL1        0.1270
      2  C          4.4650    1.1130    1.9280 C.2     1  UNL1        0.3030
      3  O          5.1550    0.2110    2.4770 O.2     1  UNL1       -0.2520
      4  O          3.2260    1.4490    2.4900 O.3     1  UNL1       -0.4810
      5  H          2.4000    0.9630    2.1670 H       1  UNL1        0.2960
      6  C          6.5000    1.9010    0.7420 C.3     1  UNL1        0.0470
      7  C          7.1170    1.0880   -0.3390 C.2     1  UNL1       -0.0470
      8  C          8.4650    1.2170   -0.6390 C.2     1  UNL1        0.0040
      9  C          6.3970    0.1850   -1.0990 C.2     1  UNL1        0.0040
     10  C          9.0630    0.4870   -1.6410 C.2     1  UNL1        0.0000
     11  C          6.9970   -0.5460   -2.1020 C.2     1  UNL1        0.0000
     12  C          8.3350   -0.4120   -2.3950 C.2     1  UNL1        0.0000
@<TRIPOS>BOND
     1    12    11    2
     2    12    10    1
     3    11     9    1
     4    10     8    2
     5     9     7    2
     6     8     7    1
     7     7     6    1
     8     1     6    1
     9     1     2    1
    10     2     3    2
    11     2     4    1
    12     5     4    1
