@<TRIPOS>MOLECULE
/home/cewinharhar/GITHUB/reincatalyze/data/processed/docking_pred/2023-Apr-25-2248_maxeplen10_maxtrainstep1000_exh16_gamma099_lrac3e-4_lrcr1e-3/4c3a486d5bbb1ad3c8ce5b6da142191fd088767a_ligand_2.pdbqt
 12 12 0 0 0
SMALL
GASTEIGER

@<TRIPOS>ATOM
      1  C          8.1900    0.2660   -2.0730 C.3     1  UNL1        0.1270
      2  C          9.3740    0.3750   -1.2020 C.2     1  UNL1        0.3030
      3  O          9.4740   -0.3910   -0.2060 O.2     1  UNL1       -0.2520
      4  O         10.3970    1.3030   -1.4440 O.3     1  UNL1       -0.4810
      5  H         11.3080    0.9590   -1.7150 H       1  UNL1        0.2960
      6  C          7.1310   -0.6530   -1.4890 C.3     1  UNL1        0.0470
      7  C          6.3590    0.0350   -0.4220 C.2     1  UNL1       -0.0470
      8  C          5.8160    1.2930   -0.6400 C.2     1  UNL1        0.0040
      9  C          6.1490   -0.5210    0.8270 C.2     1  UNL1        0.0040
     10  C          5.1050    1.9600    0.3310 C.2     1  UNL1        0.0000
     11  C          5.4360    0.1490    1.7980 C.2     1  UNL1        0.0000
     12  C          4.9020    1.3970    1.5750 C.2     1  UNL1        0.0000
@<TRIPOS>BOND
     1     1     6    1
     2     1     2    1
     3     5     4    1
     4     6     7    1
     5     4     2    1
     6     2     3    2
     7     8     7    2
     8     8    10    1
     9     7     9    1
    10    10    12    2
    11     9    11    2
    12    12    11    1
