MODEL 1
REMARK VINA RESULT:      -7.2      0.000      0.000
REMARK SMILES O=C(O)CCc1ccccc1
REMARK SMILES IDX 4 1 2 2 1 3 3 4 5 6 6 7 7 8 11 9 8 10 10 11 9 12
REMARK H PARENT 3 5
REMARK Flexibility Score: inf
ROOT
ATOM      1  C   UNL     1       8.406  -0.610  -2.173  1.00  0.00     0.127 C 
ENDROOT
BRANCH   1   2
ATOM      2  C   UNL     1       8.452  -1.884  -2.913  1.00  0.00     0.303 C 
ATOM      3  O   UNL     1       9.565  -2.450  -3.089  1.00  0.00    -0.252 OA
BRANCH   2   4
ATOM      4  O   UNL     1       7.298  -2.491  -3.428  1.00  0.00    -0.481 OA
ATOM      5  H   UNL     1       6.432  -1.970  -3.418  1.00  0.00     0.296 HD
ENDBRANCH   2   4
ENDBRANCH   1   2
BRANCH   1   6
ATOM      6  C   UNL     1       7.012  -0.010  -2.149  1.00  0.00     0.047 C 
BRANCH   6   7
ATOM      7  C   UNL     1       6.482   0.052  -0.762  1.00  0.00    -0.047 A 
ATOM      8  C   UNL     1       5.826   1.187  -0.305  1.00  0.00     0.004 A 
ATOM      9  C   UNL     1       6.616  -0.989   0.138  1.00  0.00     0.004 A 
ATOM     10  C   UNL     1       5.333   1.279   0.976  1.00  0.00     0.000 A 
ATOM     11  C   UNL     1       6.122  -0.895   1.421  1.00  0.00     0.000 A 
ATOM     12  C   UNL     1       5.474   0.234   1.867  1.00  0.00     0.000 A 
ENDBRANCH   6   7
ENDBRANCH   1   6
TORSDOF 4
ENDMDL
MODEL 2
REMARK VINA RESULT:      -7.1      0.092      1.723
REMARK SMILES O=C(O)CCc1ccccc1
REMARK SMILES IDX 4 1 2 2 1 3 3 4 5 6 6 7 7 8 11 9 8 10 10 11 9 12
REMARK H PARENT 3 5
REMARK Flexibility Score: inf
ROOT
ATOM      1  C   UNL     1       8.399  -0.635  -2.158  1.00  0.00     0.127 C 
ENDROOT
BRANCH   1   2
ATOM      2  C   UNL     1       8.419  -1.908  -2.900  1.00  0.00     0.303 C 
ATOM      3  O   UNL     1       7.326  -2.438  -3.237  1.00  0.00    -0.252 OA
BRANCH   2   4
ATOM      4  O   UNL     1       9.616  -2.552  -3.247  1.00  0.00    -0.481 OA
ATOM      5  H   UNL     1       9.675  -3.009  -4.147  1.00  0.00     0.296 HD
ENDBRANCH   2   4
ENDBRANCH   1   2
BRANCH   1   6
ATOM      6  C   UNL     1       7.019  -0.001  -2.145  1.00  0.00     0.047 C 
BRANCH   6   7
ATOM      7  C   UNL     1       6.490   0.095  -0.759  1.00  0.00    -0.047 A 
ATOM      8  C   UNL     1       6.596  -0.978   0.114  1.00  0.00     0.004 A 
ATOM      9  C   UNL     1       5.866   1.229  -0.273  1.00  0.00     0.004 A 
ATOM     10  C   UNL     1       6.107  -0.925   1.399  1.00  0.00     0.000 A 
ATOM     11  C   UNL     1       5.376   1.281   1.015  1.00  0.00     0.000 A 
ATOM     12  C   UNL     1       5.484   0.211   1.875  1.00  0.00     0.000 A 
ENDBRANCH   6   7
ENDBRANCH   1   6
TORSDOF 4
ENDMDL
MODEL 3
REMARK VINA RESULT:      -7.1      2.484      3.328
REMARK SMILES O=C(O)CCc1ccccc1
REMARK SMILES IDX 4 1 2 2 1 3 3 4 5 6 6 7 7 8 11 9 8 10 10 11 9 12
REMARK H PARENT 3 5
REMARK Flexibility Score: inf
ROOT
ATOM      1  C   UNL     1       8.002  -2.057   0.794  1.00  0.00     0.127 C 
ENDROOT
BRANCH   1   2
ATOM      2  C   UNL     1       8.319  -3.475   1.041  1.00  0.00     0.303 C 
ATOM      3  O   UNL     1       9.473  -3.901   0.765  1.00  0.00    -0.252 OA
BRANCH   2   4
ATOM      4  O   UNL     1       7.380  -4.369   1.577  1.00  0.00    -0.481 OA
ATOM      5  H   UNL     1       7.012  -5.097   0.980  1.00  0.00     0.296 HD
ENDBRANCH   2   4
ENDBRANCH   1   2
BRANCH   1   6
ATOM      6  C   UNL     1       6.707  -1.633   1.463  1.00  0.00     0.047 C 
BRANCH   6   7
ATOM      7  C   UNL     1       6.196  -0.365   0.881  1.00  0.00    -0.047 A 
ATOM      8  C   UNL     1       6.471  -0.030  -0.437  1.00  0.00     0.004 A 
ATOM      9  C   UNL     1       5.443   0.541   1.604  1.00  0.00     0.004 A 
ATOM     10  C   UNL     1       6.022   1.141  -1.003  1.00  0.00     0.000 A 
ATOM     11  C   UNL     1       4.993   1.714   1.037  1.00  0.00     0.000 A 
ATOM     12  C   UNL     1       5.272   2.040  -0.271  1.00  0.00     0.000 A 
ENDBRANCH   6   7
ENDBRANCH   1   6
TORSDOF 4
ENDMDL
MODEL 4
REMARK VINA RESULT:      -6.7      3.401      5.082
REMARK SMILES O=C(O)CCc1ccccc1
REMARK SMILES IDX 4 1 2 2 1 3 3 4 5 6 6 7 7 8 11 9 8 10 10 11 9 12
REMARK H PARENT 3 5
REMARK Flexibility Score: inf
ROOT
ATOM      1  C   UNL     1       4.987   1.778   0.721  1.00  0.00     0.127 C 
ENDROOT
BRANCH   1   2
ATOM      2  C   UNL     1       4.465   1.113   1.928  1.00  0.00     0.303 C 
ATOM      3  O   UNL     1       5.155   0.211   2.477  1.00  0.00    -0.252 OA
BRANCH   2   4
ATOM      4  O   UNL     1       3.226   1.449   2.490  1.00  0.00    -0.481 OA
ATOM      5  H   UNL     1       2.400   0.963   2.167  1.00  0.00     0.296 HD
ENDBRANCH   2   4
ENDBRANCH   1   2
BRANCH   1   6
ATOM      6  C   UNL     1       6.500   1.901   0.742  1.00  0.00     0.047 C 
BRANCH   6   7
ATOM      7  C   UNL     1       7.117   1.088  -0.339  1.00  0.00    -0.047 A 
ATOM      8  C   UNL     1       8.465   1.217  -0.639  1.00  0.00     0.004 A 
ATOM      9  C   UNL     1       6.397   0.185  -1.099  1.00  0.00     0.004 A 
ATOM     10  C   UNL     1       9.063   0.487  -1.641  1.00  0.00     0.000 A 
ATOM     11  C   UNL     1       6.997  -0.546  -2.102  1.00  0.00     0.000 A 
ATOM     12  C   UNL     1       8.335  -0.412  -2.395  1.00  0.00     0.000 A 
ENDBRANCH   6   7
ENDBRANCH   1   6
TORSDOF 4
ENDMDL
MODEL 5
REMARK VINA RESULT:      -6.6      1.937      2.269
REMARK SMILES O=C(O)CCc1ccccc1
REMARK SMILES IDX 4 1 2 2 1 3 3 4 5 6 6 7 7 8 11 9 8 10 10 11 9 12
REMARK H PARENT 3 5
REMARK Flexibility Score: inf
ROOT
ATOM      1  C   UNL     1       8.190   0.266  -2.073  1.00  0.00     0.127 C 
ENDROOT
BRANCH   1   2
ATOM      2  C   UNL     1       9.374   0.375  -1.202  1.00  0.00     0.303 C 
ATOM      3  O   UNL     1       9.474  -0.391  -0.206  1.00  0.00    -0.252 OA
BRANCH   2   4
ATOM      4  O   UNL     1      10.397   1.303  -1.444  1.00  0.00    -0.481 OA
ATOM      5  H   UNL     1      11.308   0.959  -1.715  1.00  0.00     0.296 HD
ENDBRANCH   2   4
ENDBRANCH   1   2
BRANCH   1   6
ATOM      6  C   UNL     1       7.131  -0.653  -1.489  1.00  0.00     0.047 C 
BRANCH   6   7
ATOM      7  C   UNL     1       6.359   0.035  -0.422  1.00  0.00    -0.047 A 
ATOM      8  C   UNL     1       5.816   1.293  -0.640  1.00  0.00     0.004 A 
ATOM      9  C   UNL     1       6.149  -0.521   0.827  1.00  0.00     0.004 A 
ATOM     10  C   UNL     1       5.105   1.960   0.331  1.00  0.00     0.000 A 
ATOM     11  C   UNL     1       5.436   0.149   1.798  1.00  0.00     0.000 A 
ATOM     12  C   UNL     1       4.902   1.397   1.575  1.00  0.00     0.000 A 
ENDBRANCH   6   7
ENDBRANCH   1   6
TORSDOF 4
ENDMDL
