@<TRIPOS>MOLECULE
/home/cewinharhar/GITHUB/reincatalyze/data/processed/docking_pred/2023-Apr-25-2248_maxeplen10_maxtrainstep1000_exh16_gamma099_lrac3e-4_lrcr1e-3/4c41b041102a8d5d821093d1e21668bd2b50a839_ligand_2.pdbqt
 12 12 0 0 0
SMALL
GASTEIGER

@<TRIPOS>ATOM
      1  C          8.4030   -0.7150   -2.0510 C.3     1  UNL1        0.1270
      2  C          8.3930   -1.9430   -2.8650 C.2     1  UNL1        0.3030
      3  O          7.2890   -2.4160   -3.2470 O.2     1  UNL1       -0.2520
      4  O          9.5730   -2.6060   -3.2330 O.3     1  UNL1       -0.4810
      5  H          9.5560   -3.2090   -4.0440 H       1  UNL1        0.2960
      6  C          7.0740    0.0170   -2.1010 C.3     1  UNL1        0.0470
      7  C          6.4850    0.1450   -0.7420 C.2     1  UNL1       -0.0470
      8  C          6.6080   -0.8820    0.1830 C.2     1  UNL1        0.0040
      9  C          5.7880    1.2670   -0.3310 C.2     1  UNL1        0.0040
     10  C          6.0660   -0.7980    1.4450 C.2     1  UNL1        0.0000
     11  C          5.2450    1.3500    0.9330 C.2     1  UNL1        0.0000
     12  C          5.3700    0.3260    1.8440 C.2     1  UNL1        0.0000
@<TRIPOS>BOND
     1     5     4    1
     2     3     2    2
     3     4     2    1
     4     2     1    1
     5     6     1    1
     6     6     7    1
     7     7     9    2
     8     7     8    1
     9     9    11    1
    10     8    10    2
    11    11    12    2
    12    10    12    1
