@<TRIPOS>MOLECULE
/home/cewinharhar/GITHUB/reincatalyze/data/processed/docking_pred/2023-Apr-25-2248_maxeplen10_maxtrainstep1000_exh16_gamma099_lrac3e-4_lrcr1e-3/4c41b041102a8d5d821093d1e21668bd2b50a839_ligand_2.pdbqt
 12 12 0 0 0
SMALL
GASTEIGER

@<TRIPOS>ATOM
      1  C          8.1050   -1.7050    1.2330 C.3     1  UNL1        0.1270
      2  C          8.4870   -2.8460    0.3820 C.2     1  UNL1        0.3030
      3  O          9.2060   -3.7600    0.8690 O.2     1  UNL1       -0.2520
      4  O          8.0770   -2.9510   -0.9550 O.3     1  UNL1       -0.4810
      5  H          7.1100   -2.7610   -1.1810 H       1  UNL1        0.2960
      6  C          6.6000   -1.5850    1.3900 C.3     1  UNL1        0.0470
      7  C          6.1090   -0.2920    0.8450 C.2     1  UNL1       -0.0470
      8  C          6.3790    0.0710   -0.4660 C.2     1  UNL1        0.0040
      9  C          5.3800    0.6090    1.5990 C.2     1  UNL1        0.0040
     10  C          5.9480    1.2650   -0.9970 C.2     1  UNL1        0.0000
     11  C          4.9480    1.8050    1.0650 C.2     1  UNL1        0.0000
     12  C          5.2210    2.1590   -0.2360 C.2     1  UNL1        0.0000
@<TRIPOS>BOND
     1     5     4    1
     2    10     8    1
     3    10    12    2
     4     4     2    1
     5     8     7    2
     6    12    11    1
     7     2     3    2
     8     2     1    1
     9     7     6    1
    10     7     9    1
    11    11     9    2
    12     1     6    1
