@<TRIPOS>MOLECULE
/home/cewinharhar/GITHUB/reincatalyze/data/processed/docking_pred/2023-Apr-25-2248_maxeplen10_maxtrainstep1000_exh16_gamma099_lrac3e-4_lrcr1e-3/4c41b041102a8d5d821093d1e21668bd2b50a839_ligand_2.pdbqt
 12 12 0 0 0
SMALL
GASTEIGER

@<TRIPOS>ATOM
      1  C          4.9990    1.7900    0.7120 C.3     1  UNL1        0.1270
      2  C          4.4720    1.1230    1.9150 C.2     1  UNL1        0.3030
      3  O          5.1580    0.2180    2.4640 O.2     1  UNL1       -0.2520
      4  O          3.2310    1.4610    2.4750 O.3     1  UNL1       -0.4810
      5  H          3.1480    1.4910    3.4820 H       1  UNL1        0.2960
      6  C          6.5100    1.9290    0.7490 C.3     1  UNL1        0.0470
      7  C          7.1450    1.1360   -0.3360 C.2     1  UNL1       -0.0470
      8  C          6.3960    0.2500   -1.0960 C.2     1  UNL1        0.0040
      9  C          8.4920    1.2230   -0.6370 C.2     1  UNL1        0.0040
     10  C          6.9560   -0.5070   -2.1000 C.2     1  UNL1        0.0000
     11  C          9.0520    0.4650   -1.6430 C.2     1  UNL1        0.0000
     12  C          8.3020   -0.4130   -2.3920 C.2     1  UNL1        0.0000
@<TRIPOS>BOND
     1    12    10    2
     2    12    11    1
     3    10     8    1
     4    11     9    2
     5     8     7    2
     6     9     7    1
     7     7     6    1
     8     1     6    1
     9     1     2    1
    10     2     3    2
    11     2     4    1
    12     4     5    1
