@<TRIPOS>MOLECULE
/home/cewinharhar/GITHUB/reincatalyze/data/processed/docking_pred/2023-Apr-25-2248_maxeplen10_maxtrainstep1000_exh16_gamma099_lrac3e-4_lrcr1e-3/4c41b041102a8d5d821093d1e21668bd2b50a839_ligand_2.pdbqt
 12 12 0 0 0
SMALL
GASTEIGER

@<TRIPOS>ATOM
      1  C          8.5030    0.6260   -1.6820 C.3     1  UNL1        0.1270
      2  C          9.6580    0.2860   -0.8310 C.2     1  UNL1        0.3030
      3  O          9.4950   -0.5100    0.1330 O.2     1  UNL1       -0.2520
      4  O         10.9360    0.8180   -1.0580 O.3     1  UNL1       -0.4810
      5  H         11.7420    0.2570   -0.8170 H       1  UNL1        0.2960
      6  C          7.3170   -0.2870   -1.4300 C.3     1  UNL1        0.0470
      7  C          6.4250    0.2760   -0.3820 C.2     1  UNL1       -0.0470
      8  C          5.8080    1.5050   -0.5630 C.2     1  UNL1        0.0040
      9  C          6.1720   -0.3730    0.8130 C.2     1  UNL1        0.0040
     10  C          4.9860    2.0580    0.3920 C.2     1  UNL1        0.0000
     11  C          5.3490    0.1820    1.7690 C.2     1  UNL1        0.0000
     12  C          4.7410    1.4030    1.5820 C.2     1  UNL1        0.0000
@<TRIPOS>BOND
     1     1     6    1
     2     1     2    1
     3     6     7    1
     4     4     2    1
     5     4     5    1
     6     2     3    2
     7     8     7    2
     8     8    10    1
     9     7     9    1
    10    10    12    2
    11     9    11    2
    12    12    11    1
