@<TRIPOS>MOLECULE
/home/cewinharhar/GITHUB/reincatalyze/data/processed/docking_pred/2023-Apr-25-2248_maxeplen10_maxtrainstep1000_exh16_gamma099_lrac3e-4_lrcr1e-3/4c41b041102a8d5d821093d1e21668bd2b50a839_ligand_2.pdbqt
 12 12 0 0 0
SMALL
GASTEIGER

@<TRIPOS>ATOM
      1  C          8.4100   -0.6750   -2.0950 C.3     1  UNL1        0.1270
      2  C          8.4420   -1.9150   -2.8900 C.2     1  UNL1        0.3030
      3  O          9.5490   -2.4850   -3.0930 O.2     1  UNL1       -0.2520
      4  O          7.2810   -2.4880   -3.4300 O.3     1  UNL1       -0.4810
      5  H          6.3980   -2.0160   -3.2870 H       1  UNL1        0.2960
      6  C          7.0420   -0.0170   -2.1130 C.3     1  UNL1        0.0470
      7  C          6.4760    0.0710   -0.7410 C.2     1  UNL1       -0.0470
      8  C          5.8200    1.2180   -0.3190 C.2     1  UNL1        0.0040
      9  C          6.5760   -0.9580    0.1770 C.2     1  UNL1        0.0040
     10  C          5.2940    1.3350    0.9470 C.2     1  UNL1        0.0000
     11  C          6.0490   -0.8400    1.4450 C.2     1  UNL1        0.0000
     12  C          5.4010    0.3030    1.8570 C.2     1  UNL1        0.0000
@<TRIPOS>BOND
     1     4     5    1
     2     4     2    1
     3     3     2    2
     4     2     1    1
     5     6     1    1
     6     6     7    1
     7     7     8    2
     8     7     9    1
     9     8    10    1
    10     9    11    2
    11    10    12    2
    12    11    12    1
