MODEL 1
REMARK VINA RESULT:      -7.3      0.000      0.000
REMARK SMILES O=C(O)CCc1ccccc1
REMARK SMILES IDX 4 1 2 2 1 3 3 4 5 6 6 7 7 8 11 9 8 10 10 11 9 12
REMARK H PARENT 3 5
REMARK Flexibility Score: inf
ROOT
ATOM      1  C   UNL     1       8.410  -0.675  -2.095  1.00  0.00     0.127 C 
ENDROOT
BRANCH   1   2
ATOM      2  C   UNL     1       8.442  -1.915  -2.890  1.00  0.00     0.303 C 
ATOM      3  O   UNL     1       9.549  -2.485  -3.093  1.00  0.00    -0.252 OA
BRANCH   2   4
ATOM      4  O   UNL     1       7.281  -2.488  -3.430  1.00  0.00    -0.481 OA
ATOM      5  H   UNL     1       6.398  -2.016  -3.287  1.00  0.00     0.296 HD
ENDBRANCH   2   4
ENDBRANCH   1   2
BRANCH   1   6
ATOM      6  C   UNL     1       7.042  -0.017  -2.113  1.00  0.00     0.047 C 
BRANCH   6   7
ATOM      7  C   UNL     1       6.476   0.071  -0.741  1.00  0.00    -0.047 A 
ATOM      8  C   UNL     1       5.820   1.218  -0.319  1.00  0.00     0.004 A 
ATOM      9  C   UNL     1       6.576  -0.958   0.177  1.00  0.00     0.004 A 
ATOM     10  C   UNL     1       5.294   1.335   0.947  1.00  0.00     0.000 A 
ATOM     11  C   UNL     1       6.049  -0.840   1.445  1.00  0.00     0.000 A 
ATOM     12  C   UNL     1       5.401   0.303   1.857  1.00  0.00     0.000 A 
ENDBRANCH   6   7
ENDBRANCH   1   6
TORSDOF 4
ENDMDL
MODEL 2
REMARK VINA RESULT:      -7.3      0.098      1.723
REMARK SMILES O=C(O)CCc1ccccc1
REMARK SMILES IDX 4 1 2 2 1 3 3 4 5 6 6 7 7 8 11 9 8 10 10 11 9 12
REMARK H PARENT 3 5
REMARK Flexibility Score: inf
ROOT
ATOM      1  C   UNL     1       8.403  -0.715  -2.051  1.00  0.00     0.127 C 
ENDROOT
BRANCH   1   2
ATOM      2  C   UNL     1       8.393  -1.943  -2.865  1.00  0.00     0.303 C 
ATOM      3  O   UNL     1       7.289  -2.416  -3.247  1.00  0.00    -0.252 OA
BRANCH   2   4
ATOM      4  O   UNL     1       9.573  -2.606  -3.233  1.00  0.00    -0.481 OA
ATOM      5  H   UNL     1       9.556  -3.209  -4.044  1.00  0.00     0.296 HD
ENDBRANCH   2   4
ENDBRANCH   1   2
BRANCH   1   6
ATOM      6  C   UNL     1       7.074   0.017  -2.101  1.00  0.00     0.047 C 
BRANCH   6   7
ATOM      7  C   UNL     1       6.485   0.145  -0.742  1.00  0.00    -0.047 A 
ATOM      8  C   UNL     1       6.608  -0.882   0.183  1.00  0.00     0.004 A 
ATOM      9  C   UNL     1       5.788   1.267  -0.331  1.00  0.00     0.004 A 
ATOM     10  C   UNL     1       6.066  -0.798   1.445  1.00  0.00     0.000 A 
ATOM     11  C   UNL     1       5.245   1.350   0.933  1.00  0.00     0.000 A 
ATOM     12  C   UNL     1       5.370   0.326   1.844  1.00  0.00     0.000 A 
ENDBRANCH   6   7
ENDBRANCH   1   6
TORSDOF 4
ENDMDL
MODEL 3
REMARK VINA RESULT:      -6.8      3.396      5.096
REMARK SMILES O=C(O)CCc1ccccc1
REMARK SMILES IDX 4 1 2 2 1 3 3 4 5 6 6 7 7 8 11 9 8 10 10 11 9 12
REMARK H PARENT 3 5
REMARK Flexibility Score: inf
ROOT
ATOM      1  C   UNL     1       4.999   1.790   0.712  1.00  0.00     0.127 C 
ENDROOT
BRANCH   1   2
ATOM      2  C   UNL     1       4.472   1.123   1.915  1.00  0.00     0.303 C 
ATOM      3  O   UNL     1       5.158   0.218   2.464  1.00  0.00    -0.252 OA
BRANCH   2   4
ATOM      4  O   UNL     1       3.231   1.461   2.475  1.00  0.00    -0.481 OA
ATOM      5  H   UNL     1       3.148   1.491   3.482  1.00  0.00     0.296 HD
ENDBRANCH   2   4
ENDBRANCH   1   2
BRANCH   1   6
ATOM      6  C   UNL     1       6.510   1.929   0.749  1.00  0.00     0.047 C 
BRANCH   6   7
ATOM      7  C   UNL     1       7.145   1.136  -0.336  1.00  0.00    -0.047 A 
ATOM      8  C   UNL     1       6.396   0.250  -1.096  1.00  0.00     0.004 A 
ATOM      9  C   UNL     1       8.492   1.223  -0.637  1.00  0.00     0.004 A 
ATOM     10  C   UNL     1       6.956  -0.507  -2.100  1.00  0.00     0.000 A 
ATOM     11  C   UNL     1       9.052   0.465  -1.643  1.00  0.00     0.000 A 
ATOM     12  C   UNL     1       8.302  -0.413  -2.392  1.00  0.00     0.000 A 
ENDBRANCH   6   7
ENDBRANCH   1   6
TORSDOF 4
ENDMDL
MODEL 4
REMARK VINA RESULT:      -6.6      1.896      2.922
REMARK SMILES O=C(O)CCc1ccccc1
REMARK SMILES IDX 4 1 2 2 1 3 3 4 5 6 6 7 7 8 11 9 8 10 10 11 9 12
REMARK H PARENT 3 5
REMARK Flexibility Score: inf
ROOT
ATOM      1  C   UNL     1       8.105  -1.705   1.233  1.00  0.00     0.127 C 
ENDROOT
BRANCH   1   2
ATOM      2  C   UNL     1       8.487  -2.846   0.382  1.00  0.00     0.303 C 
ATOM      3  O   UNL     1       9.206  -3.760   0.869  1.00  0.00    -0.252 OA
BRANCH   2   4
ATOM      4  O   UNL     1       8.077  -2.951  -0.955  1.00  0.00    -0.481 OA
ATOM      5  H   UNL     1       7.110  -2.761  -1.181  1.00  0.00     0.296 HD
ENDBRANCH   2   4
ENDBRANCH   1   2
BRANCH   1   6
ATOM      6  C   UNL     1       6.600  -1.585   1.390  1.00  0.00     0.047 C 
BRANCH   6   7
ATOM      7  C   UNL     1       6.109  -0.292   0.845  1.00  0.00    -0.047 A 
ATOM      8  C   UNL     1       6.379   0.071  -0.466  1.00  0.00     0.004 A 
ATOM      9  C   UNL     1       5.380   0.609   1.599  1.00  0.00     0.004 A 
ATOM     10  C   UNL     1       5.948   1.265  -0.997  1.00  0.00     0.000 A 
ATOM     11  C   UNL     1       4.948   1.805   1.065  1.00  0.00     0.000 A 
ATOM     12  C   UNL     1       5.221   2.159  -0.236  1.00  0.00     0.000 A 
ENDBRANCH   6   7
ENDBRANCH   1   6
TORSDOF 4
ENDMDL
MODEL 5
REMARK VINA RESULT:      -6.6      2.064      2.389
REMARK SMILES O=C(O)CCc1ccccc1
REMARK SMILES IDX 4 1 2 2 1 3 3 4 5 6 6 7 7 8 11 9 8 10 10 11 9 12
REMARK H PARENT 3 5
REMARK Flexibility Score: inf
ROOT
ATOM      1  C   UNL     1       8.503   0.626  -1.682  1.00  0.00     0.127 C 
ENDROOT
BRANCH   1   2
ATOM      2  C   UNL     1       9.658   0.286  -0.831  1.00  0.00     0.303 C 
ATOM      3  O   UNL     1       9.495  -0.510   0.133  1.00  0.00    -0.252 OA
BRANCH   2   4
ATOM      4  O   UNL     1      10.936   0.818  -1.058  1.00  0.00    -0.481 OA
ATOM      5  H   UNL     1      11.742   0.257  -0.817  1.00  0.00     0.296 HD
ENDBRANCH   2   4
ENDBRANCH   1   2
BRANCH   1   6
ATOM      6  C   UNL     1       7.317  -0.287  -1.430  1.00  0.00     0.047 C 
BRANCH   6   7
ATOM      7  C   UNL     1       6.425   0.276  -0.382  1.00  0.00    -0.047 A 
ATOM      8  C   UNL     1       5.808   1.505  -0.563  1.00  0.00     0.004 A 
ATOM      9  C   UNL     1       6.172  -0.373   0.813  1.00  0.00     0.004 A 
ATOM     10  C   UNL     1       4.986   2.058   0.392  1.00  0.00     0.000 A 
ATOM     11  C   UNL     1       5.349   0.182   1.769  1.00  0.00     0.000 A 
ATOM     12  C   UNL     1       4.741   1.403   1.582  1.00  0.00     0.000 A 
ENDBRANCH   6   7
ENDBRANCH   1   6
TORSDOF 4
ENDMDL
