@<TRIPOS>MOLECULE
/home/cewinharhar/GITHUB/reincatalyze/data/processed/docking_pred/2023-Apr-25-2248_maxeplen10_maxtrainstep1000_exh16_gamma099_lrac3e-4_lrcr1e-3/4d620996829bdf69d2437cdb6940cc233521eaf3_ligand_2.pdbqt
 12 12 0 0 0
SMALL
GASTEIGER

@<TRIPOS>ATOM
      1  C          5.5300    2.9020    0.0340 C.3     1  UNL1        0.1270
      2  C          6.2930    3.8700    0.8410 C.2     1  UNL1        0.3030
      3  O          6.9490    4.7740    0.2550 O.2     1  UNL1       -0.2520
      4  O          6.3150    3.8220    2.2430 O.3     1  UNL1       -0.4810
      5  H          5.8560    3.0510    2.7070 H       1  UNL1        0.2960
      6  C          4.8530    1.8470    0.8910 C.3     1  UNL1        0.0470
      7  C          5.6740    0.6100    0.9580 C.2     1  UNL1       -0.0470
      8  C          6.3870    0.1720   -0.1490 C.2     1  UNL1        0.0040
      9  C          5.7650   -0.1660    2.0990 C.2     1  UNL1        0.0040
     10  C          7.1470   -0.9750   -0.1220 C.2     1  UNL1        0.0000
     11  C          6.5270   -1.3150    2.1250 C.2     1  UNL1        0.0000
     12  C          7.2300   -1.7430    1.0220 C.2     1  UNL1        0.0000
@<TRIPOS>BOND
     1     8    10    1
     2     8     7    2
     3    10    12    2
     4     1     2    1
     5     1     6    1
     6     3     2    2
     7     2     4    1
     8     6     7    1
     9     7     9    1
    10    12    11    1
    11     9    11    2
    12     4     5    1
