@<TRIPOS>MOLECULE
/home/cewinharhar/GITHUB/reincatalyze/data/processed/docking_pred/2023-Apr-25-2248_maxeplen10_maxtrainstep1000_exh16_gamma099_lrac3e-4_lrcr1e-3/4d620996829bdf69d2437cdb6940cc233521eaf3_ligand_2.pdbqt
 12 12 0 0 0
SMALL
GASTEIGER

@<TRIPOS>ATOM
      1  C          5.0070    1.7370    0.6970 C.3     1  UNL1        0.1270
      2  C          4.4850    1.0950    1.9160 C.2     1  UNL1        0.3030
      3  O          5.1740    0.2020    2.4800 O.2     1  UNL1       -0.2520
      4  O          3.2470    1.4440    2.4750 O.3     1  UNL1       -0.4810
      5  H          2.9200    2.3950    2.3690 H       1  UNL1        0.2960
      6  C          6.5170    1.8880    0.7280 C.3     1  UNL1        0.0470
      7  C          7.1550    1.0840   -0.3460 C.2     1  UNL1       -0.0470
      8  C          6.4120    0.1760   -1.0870 C.2     1  UNL1        0.0040
      9  C          8.4990    1.1830   -0.6580 C.2     1  UNL1        0.0040
     10  C          6.9750   -0.5900   -2.0810 C.2     1  UNL1        0.0000
     11  C          9.0620    0.4150   -1.6540 C.2     1  UNL1        0.0000
     12  C          8.3180   -0.4850   -2.3840 C.2     1  UNL1        0.0000
@<TRIPOS>BOND
     1    12    10    2
     2    12    11    1
     3    10     8    1
     4    11     9    2
     5     8     7    2
     6     9     7    1
     7     7     6    1
     8     1     6    1
     9     1     2    1
    10     2     4    1
    11     2     3    2
    12     5     4    1
