@<TRIPOS>MOLECULE
/home/cewinharhar/GITHUB/reincatalyze/data/processed/docking_pred/2023-Apr-25-2248_maxeplen10_maxtrainstep1000_exh16_gamma099_lrac3e-4_lrcr1e-3/4d620996829bdf69d2437cdb6940cc233521eaf3_ligand_2.pdbqt
 12 12 0 0 0
SMALL
GASTEIGER

@<TRIPOS>ATOM
      1  C          8.1540   -0.6960   -2.1190 C.3     1  UNL1        0.1270
      2  C          8.3030   -1.9120   -2.9380 C.2     1  UNL1        0.3030
      3  O          9.4360   -2.4590   -3.0210 O.2     1  UNL1       -0.2520
      4  O          7.2260   -2.4850   -3.6300 O.3     1  UNL1       -0.4810
      5  H          7.2540   -2.5000   -4.6410 H       1  UNL1        0.2960
      6  C          7.9370   -1.0160   -0.6510 C.3     1  UNL1        0.0470
      7  C          6.8930   -0.1360   -0.0630 C.2     1  UNL1       -0.0470
      8  C          6.3610    0.9170   -0.7930 C.2     1  UNL1        0.0040
      9  C          6.4080   -0.3050    1.2210 C.2     1  UNL1        0.0040
     10  C          5.4020    1.7550   -0.2740 C.2     1  UNL1        0.0000
     11  C          5.4470    0.5350    1.7400 C.2     1  UNL1        0.0000
     12  C          4.9250    1.5790    1.0100 C.2     1  UNL1        0.0000
@<TRIPOS>BOND
     1     5     4    1
     2     4     2    1
     3     3     2    2
     4     2     1    1
     5     1     6    1
     6     8    10    1
     7     8     7    2
     8     6     7    1
     9    10    12    2
    10     7     9    1
    11    12    11    1
    12     9    11    2
