MODEL 1
REMARK VINA RESULT:      -7.3      0.000      0.000
REMARK SMILES O=C(O)CCc1ccccc1
REMARK SMILES IDX 4 1 2 2 1 3 3 4 5 6 6 7 7 8 11 9 8 10 10 11 9 12
REMARK H PARENT 3 5
REMARK Flexibility Score: inf
ROOT
ATOM      1  C   UNL     1       8.431  -0.719  -2.041  1.00  0.00     0.127 C 
ENDROOT
BRANCH   1   2
ATOM      2  C   UNL     1       8.419  -1.939  -2.867  1.00  0.00     0.303 C 
ATOM      3  O   UNL     1       7.312  -2.425  -3.226  1.00  0.00    -0.252 OA
BRANCH   2   4
ATOM      4  O   UNL     1       9.599  -2.580  -3.272  1.00  0.00    -0.481 OA
ATOM      5  H   UNL     1       9.886  -2.499  -4.238  1.00  0.00     0.296 HD
ENDBRANCH   2   4
ENDBRANCH   1   2
BRANCH   1   6
ATOM      6  C   UNL     1       7.104   0.018  -2.085  1.00  0.00     0.047 C 
BRANCH   6   7
ATOM      7  C   UNL     1       6.501   0.111  -0.730  1.00  0.00    -0.047 A 
ATOM      8  C   UNL     1       5.814   1.251  -0.339  1.00  0.00     0.004 A 
ATOM      9  C   UNL     1       6.596  -0.905   0.203  1.00  0.00     0.004 A 
ATOM     10  C   UNL     1       5.253   1.373   0.912  1.00  0.00     0.000 A 
ATOM     11  C   UNL     1       6.034  -0.782   1.455  1.00  0.00     0.000 A 
ATOM     12  C   UNL     1       5.354   0.353   1.837  1.00  0.00     0.000 A 
ENDBRANCH   6   7
ENDBRANCH   1   6
TORSDOF 4
ENDMDL
MODEL 2
REMARK VINA RESULT:      -7.3      0.042      1.421
REMARK SMILES O=C(O)CCc1ccccc1
REMARK SMILES IDX 4 1 2 2 1 3 3 4 5 6 6 7 7 8 11 9 8 10 10 11 9 12
REMARK H PARENT 3 5
REMARK Flexibility Score: inf
ROOT
ATOM      1  C   UNL     1       8.416  -0.698  -2.071  1.00  0.00     0.127 C 
ENDROOT
BRANCH   1   2
ATOM      2  C   UNL     1       8.402  -1.930  -2.880  1.00  0.00     0.303 C 
ATOM      3  O   UNL     1       7.295  -2.415  -3.238  1.00  0.00    -0.252 OA
BRANCH   2   4
ATOM      4  O   UNL     1       9.581  -2.584  -3.267  1.00  0.00    -0.481 OA
ATOM      5  H   UNL     1      10.448  -2.324  -2.816  1.00  0.00     0.296 HD
ENDBRANCH   2   4
ENDBRANCH   1   2
BRANCH   1   6
ATOM      6  C   UNL     1       7.086   0.032  -2.115  1.00  0.00     0.047 C 
BRANCH   6   7
ATOM      7  C   UNL     1       6.496   0.146  -0.756  1.00  0.00    -0.047 A 
ATOM      8  C   UNL     1       6.614  -0.893   0.157  1.00  0.00     0.004 A 
ATOM      9  C   UNL     1       5.803   1.265  -0.332  1.00  0.00     0.004 A 
ATOM     10  C   UNL     1       6.070  -0.822   1.419  1.00  0.00     0.000 A 
ATOM     11  C   UNL     1       5.259   1.335   0.932  1.00  0.00     0.000 A 
ATOM     12  C   UNL     1       5.379   0.299   1.831  1.00  0.00     0.000 A 
ENDBRANCH   6   7
ENDBRANCH   1   6
TORSDOF 4
ENDMDL
MODEL 3
REMARK VINA RESULT:      -6.9      0.673      1.448
REMARK SMILES O=C(O)CCc1ccccc1
REMARK SMILES IDX 4 1 2 2 1 3 3 4 5 6 6 7 7 8 11 9 8 10 10 11 9 12
REMARK H PARENT 3 5
REMARK Flexibility Score: inf
ROOT
ATOM      1  C   UNL     1       8.154  -0.696  -2.119  1.00  0.00     0.127 C 
ENDROOT
BRANCH   1   2
ATOM      2  C   UNL     1       8.303  -1.912  -2.938  1.00  0.00     0.303 C 
ATOM      3  O   UNL     1       9.436  -2.459  -3.021  1.00  0.00    -0.252 OA
BRANCH   2   4
ATOM      4  O   UNL     1       7.226  -2.485  -3.630  1.00  0.00    -0.481 OA
ATOM      5  H   UNL     1       7.254  -2.500  -4.641  1.00  0.00     0.296 HD
ENDBRANCH   2   4
ENDBRANCH   1   2
BRANCH   1   6
ATOM      6  C   UNL     1       7.937  -1.016  -0.651  1.00  0.00     0.047 C 
BRANCH   6   7
ATOM      7  C   UNL     1       6.893  -0.136  -0.063  1.00  0.00    -0.047 A 
ATOM      8  C   UNL     1       6.361   0.917  -0.793  1.00  0.00     0.004 A 
ATOM      9  C   UNL     1       6.408  -0.305   1.221  1.00  0.00     0.004 A 
ATOM     10  C   UNL     1       5.402   1.755  -0.274  1.00  0.00     0.000 A 
ATOM     11  C   UNL     1       5.447   0.535   1.740  1.00  0.00     0.000 A 
ATOM     12  C   UNL     1       4.925   1.579   1.010  1.00  0.00     0.000 A 
ENDBRANCH   6   7
ENDBRANCH   1   6
TORSDOF 4
ENDMDL
MODEL 4
REMARK VINA RESULT:      -6.8      3.312      5.168
REMARK SMILES O=C(O)CCc1ccccc1
REMARK SMILES IDX 4 1 2 2 1 3 3 4 5 6 6 7 7 8 11 9 8 10 10 11 9 12
REMARK H PARENT 3 5
REMARK Flexibility Score: inf
ROOT
ATOM      1  C   UNL     1       5.007   1.737   0.697  1.00  0.00     0.127 C 
ENDROOT
BRANCH   1   2
ATOM      2  C   UNL     1       4.485   1.095   1.916  1.00  0.00     0.303 C 
ATOM      3  O   UNL     1       5.174   0.202   2.480  1.00  0.00    -0.252 OA
BRANCH   2   4
ATOM      4  O   UNL     1       3.247   1.444   2.475  1.00  0.00    -0.481 OA
ATOM      5  H   UNL     1       2.920   2.395   2.369  1.00  0.00     0.296 HD
ENDBRANCH   2   4
ENDBRANCH   1   2
BRANCH   1   6
ATOM      6  C   UNL     1       6.517   1.888   0.728  1.00  0.00     0.047 C 
BRANCH   6   7
ATOM      7  C   UNL     1       7.155   1.084  -0.346  1.00  0.00    -0.047 A 
ATOM      8  C   UNL     1       6.412   0.176  -1.087  1.00  0.00     0.004 A 
ATOM      9  C   UNL     1       8.499   1.183  -0.658  1.00  0.00     0.004 A 
ATOM     10  C   UNL     1       6.975  -0.590  -2.081  1.00  0.00     0.000 A 
ATOM     11  C   UNL     1       9.062   0.415  -1.654  1.00  0.00     0.000 A 
ATOM     12  C   UNL     1       8.318  -0.485  -2.384  1.00  0.00     0.000 A 
ENDBRANCH   6   7
ENDBRANCH   1   6
TORSDOF 4
ENDMDL
MODEL 5
REMARK VINA RESULT:      -6.7      3.831      4.966
REMARK SMILES O=C(O)CCc1ccccc1
REMARK SMILES IDX 4 1 2 2 1 3 3 4 5 6 6 7 7 8 11 9 8 10 10 11 9 12
REMARK H PARENT 3 5
REMARK Flexibility Score: inf
ROOT
ATOM      1  C   UNL     1       5.530   2.902   0.034  1.00  0.00     0.127 C 
ENDROOT
BRANCH   1   2
ATOM      2  C   UNL     1       6.293   3.870   0.841  1.00  0.00     0.303 C 
ATOM      3  O   UNL     1       6.949   4.774   0.255  1.00  0.00    -0.252 OA
BRANCH   2   4
ATOM      4  O   UNL     1       6.315   3.822   2.243  1.00  0.00    -0.481 OA
ATOM      5  H   UNL     1       5.856   3.051   2.707  1.00  0.00     0.296 HD
ENDBRANCH   2   4
ENDBRANCH   1   2
BRANCH   1   6
ATOM      6  C   UNL     1       4.853   1.847   0.891  1.00  0.00     0.047 C 
BRANCH   6   7
ATOM      7  C   UNL     1       5.674   0.610   0.958  1.00  0.00    -0.047 A 
ATOM      8  C   UNL     1       6.387   0.172  -0.149  1.00  0.00     0.004 A 
ATOM      9  C   UNL     1       5.765  -0.166   2.099  1.00  0.00     0.004 A 
ATOM     10  C   UNL     1       7.147  -0.975  -0.122  1.00  0.00     0.000 A 
ATOM     11  C   UNL     1       6.527  -1.315   2.125  1.00  0.00     0.000 A 
ATOM     12  C   UNL     1       7.230  -1.743   1.022  1.00  0.00     0.000 A 
ENDBRANCH   6   7
ENDBRANCH   1   6
TORSDOF 4
ENDMDL
