@<TRIPOS>MOLECULE
/home/cewinharhar/GITHUB/reincatalyze/data/processed/docking_pred/2023-Apr-25-2248_maxeplen10_maxtrainstep1000_exh16_gamma099_lrac3e-4_lrcr1e-3/4d620996829bdf69d2437cdb6940cc233521eaf3_ligand_2.pdbqt
 12 12 0 0 0
SMALL
GASTEIGER

@<TRIPOS>ATOM
      1  C          8.4310   -0.7190   -2.0410 C.3     1  UNL1        0.1270
      2  C          8.4190   -1.9390   -2.8670 C.2     1  UNL1        0.3030
      3  O          7.3120   -2.4250   -3.2260 O.2     1  UNL1       -0.2520
      4  O          9.5990   -2.5800   -3.2720 O.3     1  UNL1       -0.4810
      5  H          9.8860   -2.4990   -4.2380 H       1  UNL1        0.2960
      6  C          7.1040    0.0180   -2.0850 C.3     1  UNL1        0.0470
      7  C          6.5010    0.1110   -0.7300 C.2     1  UNL1       -0.0470
      8  C          5.8140    1.2510   -0.3390 C.2     1  UNL1        0.0040
      9  C          6.5960   -0.9050    0.2030 C.2     1  UNL1        0.0040
     10  C          5.2530    1.3730    0.9120 C.2     1  UNL1        0.0000
     11  C          6.0340   -0.7820    1.4550 C.2     1  UNL1        0.0000
     12  C          5.3540    0.3530    1.8370 C.2     1  UNL1        0.0000
@<TRIPOS>BOND
     1     5     4    1
     2     4     2    1
     3     3     2    2
     4     2     1    1
     5     6     1    1
     6     6     7    1
     7     7     8    2
     8     7     9    1
     9     8    10    1
    10     9    11    2
    11    10    12    2
    12    11    12    1
