@<TRIPOS>MOLECULE
/home/cewinharhar/GITHUB/reincatalyze/data/processed/docking_pred/2023-Apr-25-2248_maxeplen10_maxtrainstep1000_exh16_gamma099_lrac3e-4_lrcr1e-3/4d620996829bdf69d2437cdb6940cc233521eaf3_ligand_2.pdbqt
 12 12 0 0 0
SMALL
GASTEIGER

@<TRIPOS>ATOM
      1  C          8.4160   -0.6980   -2.0710 C.3     1  UNL1        0.1270
      2  C          8.4020   -1.9300   -2.8800 C.2     1  UNL1        0.3030
      3  O          7.2950   -2.4150   -3.2380 O.2     1  UNL1       -0.2520
      4  O          9.5810   -2.5840   -3.2670 O.3     1  UNL1       -0.4810
      5  H         10.4480   -2.3240   -2.8160 H       1  UNL1        0.2960
      6  C          7.0860    0.0320   -2.1150 C.3     1  UNL1        0.0470
      7  C          6.4960    0.1460   -0.7560 C.2     1  UNL1       -0.0470
      8  C          6.6140   -0.8930    0.1570 C.2     1  UNL1        0.0040
      9  C          5.8030    1.2650   -0.3320 C.2     1  UNL1        0.0040
     10  C          6.0700   -0.8220    1.4190 C.2     1  UNL1        0.0000
     11  C          5.2590    1.3350    0.9320 C.2     1  UNL1        0.0000
     12  C          5.3790    0.2990    1.8310 C.2     1  UNL1        0.0000
@<TRIPOS>BOND
     1     4     2    1
     2     4     5    1
     3     3     2    2
     4     2     1    1
     5     6     1    1
     6     6     7    1
     7     7     9    2
     8     7     8    1
     9     9    11    1
    10     8    10    2
    11    11    12    2
    12    10    12    1
