@<TRIPOS>MOLECULE
/home/cewinharhar/GITHUB/reincatalyze/data/processed/docking_pred/2023-Apr-25-2248_maxeplen10_maxtrainstep1000_exh16_gamma099_lrac3e-4_lrcr1e-3/4dfe2a4ebf2cd2c58b23ebebd9c83ff91bb12173_ligand_2.pdbqt
 12 12 0 0 0
SMALL
GASTEIGER

@<TRIPOS>ATOM
      1  C          8.1690    0.2470   -2.0920 C.3     1  UNL1        0.1270
      2  C          9.3470    0.3630   -1.2140 C.2     1  UNL1        0.3030
      3  O          9.4520   -0.4110   -0.2250 O.2     1  UNL1       -0.2520
      4  O         10.3600    1.3070   -1.4420 O.3     1  UNL1       -0.4810
      5  H         11.0280    1.1300   -2.1800 H       1  UNL1        0.2960
      6  C          7.0990   -0.6520   -1.5000 C.3     1  UNL1        0.0470
      7  C          6.3330    0.0570   -0.4410 C.2     1  UNL1       -0.0470
      8  C          5.8010    1.3170   -0.6770 C.2     1  UNL1        0.0040
      9  C          6.1200   -0.4800    0.8150 C.2     1  UNL1        0.0040
     10  C          5.0970    2.0040    0.2860 C.2     1  UNL1        0.0000
     11  C          5.4140    0.2090    1.7770 C.2     1  UNL1        0.0000
     12  C          4.8900    1.4590    1.5370 C.2     1  UNL1        0.0000
@<TRIPOS>BOND
     1     5     4    1
     2     1     6    1
     3     1     2    1
     4     6     7    1
     5     4     2    1
     6     2     3    2
     7     8     7    2
     8     8    10    1
     9     7     9    1
    10    10    12    2
    11     9    11    2
    12    12    11    1
