@<TRIPOS>MOLECULE
/home/cewinharhar/GITHUB/reincatalyze/data/processed/docking_pred/2023-Apr-25-2248_maxeplen10_maxtrainstep1000_exh16_gamma099_lrac3e-4_lrcr1e-3/4dfe2a4ebf2cd2c58b23ebebd9c83ff91bb12173_ligand_2.pdbqt
 12 12 0 0 0
SMALL
GASTEIGER

@<TRIPOS>ATOM
      1  C          8.4590   -0.7990   -1.9730 C.3     1  UNL1        0.1270
      2  C          8.4650   -1.9720   -2.8660 C.2     1  UNL1        0.3030
      3  O          9.5620   -2.5330   -3.1310 O.2     1  UNL1       -0.2520
      4  O          7.2900   -2.4870   -3.4310 O.3     1  UNL1       -0.4810
      5  H          7.1330   -3.4850   -3.3940 H       1  UNL1        0.2960
      6  C          7.1720   -0.0010   -2.0830 C.3     1  UNL1        0.0470
      7  C          6.5300    0.1610   -0.7530 C.2     1  UNL1       -0.0470
      8  C          6.6320   -0.8350    0.2080 C.2     1  UNL1        0.0040
      9  C          5.8020    1.2830   -0.4050 C.2     1  UNL1        0.0040
     10  C          6.0400   -0.7210    1.4450 C.2     1  UNL1        0.0000
     11  C          5.2100    1.3970    0.8350 C.2     1  UNL1        0.0000
     12  C          5.3140    0.4040    1.7820 C.2     1  UNL1        0.0000
@<TRIPOS>BOND
     1     4     5    1
     2     4     2    1
     3     3     2    2
     4     2     1    1
     5     6     1    1
     6     6     7    1
     7     7     9    2
     8     7     8    1
     9     9    11    1
    10     8    10    2
    11    11    12    2
    12    10    12    1
