@<TRIPOS>MOLECULE
/home/cewinharhar/GITHUB/reincatalyze/data/processed/docking_pred/2023-Apr-25-2248_maxeplen10_maxtrainstep1000_exh16_gamma099_lrac3e-4_lrcr1e-3/4dfe2a4ebf2cd2c58b23ebebd9c83ff91bb12173_ligand_2.pdbqt
 12 12 0 0 0
SMALL
GASTEIGER

@<TRIPOS>ATOM
      1  C          8.3110   -1.7300    1.1230 C.3     1  UNL1        0.1270
      2  C          8.7150   -2.9850    0.4650 C.2     1  UNL1        0.3030
      3  O          9.4550   -3.7920    1.0890 O.2     1  UNL1       -0.2520
      4  O          8.3020   -3.3150   -0.8340 O.3     1  UNL1       -0.4810
      5  H          8.6210   -2.7410   -1.6030 H       1  UNL1        0.2960
      6  C          6.8120   -1.6610    1.3570 C.3     1  UNL1        0.0470
      7  C          6.2510   -0.3840    0.8440 C.2     1  UNL1       -0.0470
      8  C          6.4920    0.0210   -0.4610 C.2     1  UNL1        0.0040
      9  C          5.4810    0.4620    1.6220 C.2     1  UNL1        0.0040
     10  C          5.9960    1.2030   -0.9630 C.2     1  UNL1        0.0000
     11  C          4.9850    1.6450    1.1170 C.2     1  UNL1        0.0000
     12  C          5.2300    2.0400   -0.1780 C.2     1  UNL1        0.0000
@<TRIPOS>BOND
     1     5     4    1
     2    10     8    1
     3    10    12    2
     4     4     2    1
     5     8     7    2
     6    12    11    1
     7     2     3    2
     8     2     1    1
     9     7     6    1
    10     7     9    1
    11    11     9    2
    12     1     6    1
