@<TRIPOS>MOLECULE
/home/cewinharhar/GITHUB/reincatalyze/data/processed/docking_pred/2023-Apr-25-2248_maxeplen10_maxtrainstep1000_exh16_gamma099_lrac3e-4_lrcr1e-3/4dfe2a4ebf2cd2c58b23ebebd9c83ff91bb12173_ligand_2.pdbqt
 12 12 0 0 0
SMALL
GASTEIGER

@<TRIPOS>ATOM
      1  C          8.4130   -0.6010   -2.1780 C.3     1  UNL1        0.1270
      2  C          8.4610   -1.8770   -2.9140 C.2     1  UNL1        0.3030
      3  O          9.5740   -2.4410   -3.0900 O.2     1  UNL1       -0.2520
      4  O          7.3070   -2.4890   -3.4260 O.3     1  UNL1       -0.4810
      5  H          7.4110   -3.3230   -3.9870 H       1  UNL1        0.2960
      6  C          7.0190   -0.0010   -2.1600 C.3     1  UNL1        0.0470
      7  C          6.4870    0.0690   -0.7740 C.2     1  UNL1       -0.0470
      8  C          5.8370    1.2080   -0.3220 C.2     1  UNL1        0.0040
      9  C          6.6150   -0.9700    0.1300 C.2     1  UNL1        0.0040
     10  C          5.3430    1.3080    0.9590 C.2     1  UNL1        0.0000
     11  C          6.1190   -0.8690    1.4120 C.2     1  UNL1        0.0000
     12  C          5.4770    0.2660    1.8540 C.2     1  UNL1        0.0000
@<TRIPOS>BOND
     1     5     4    1
     2     4     2    1
     3     3     2    2
     4     2     1    1
     5     1     6    1
     6     6     7    1
     7     7     8    2
     8     7     9    1
     9     8    10    1
    10     9    11    2
    11    10    12    2
    12    11    12    1
