@<TRIPOS>MOLECULE
/home/cewinharhar/GITHUB/reincatalyze/data/processed/docking_pred/2023-Apr-25-2248_maxeplen10_maxtrainstep1000_exh16_gamma099_lrac3e-4_lrcr1e-3/4dfe2a4ebf2cd2c58b23ebebd9c83ff91bb12173_ligand_2.pdbqt
 12 12 0 0 0
SMALL
GASTEIGER

@<TRIPOS>ATOM
      1  C          5.0440    1.7470    0.7590 C.3     1  UNL1        0.1270
      2  C          4.5490    1.0440    1.9560 C.2     1  UNL1        0.3030
      3  O          5.2720    0.1580    2.4880 O.2     1  UNL1       -0.2520
      4  O          3.3000    1.3270    2.5260 O.3     1  UNL1       -0.4810
      5  H          2.6940    1.9880    2.0590 H       1  UNL1        0.2960
      6  C          6.5570    1.8670    0.7480 C.3     1  UNL1        0.0470
      7  C          7.1490    1.0480   -0.3410 C.2     1  UNL1       -0.0470
      8  C          8.4840    1.1940   -0.6910 C.2     1  UNL1        0.0040
      9  C          6.4190    0.1200   -1.0610 C.2     1  UNL1        0.0040
     10  C          9.0590    0.4590   -1.7020 C.2     1  UNL1        0.0000
     11  C          6.9970   -0.6160   -2.0730 C.2     1  UNL1        0.0000
     12  C          8.3210   -0.4640   -2.4160 C.2     1  UNL1        0.0000
@<TRIPOS>BOND
     1    12    11    2
     2    12    10    1
     3    11     9    1
     4    10     8    2
     5     9     7    2
     6     8     7    1
     7     7     6    1
     8     6     1    1
     9     1     2    1
    10     2     3    2
    11     2     4    1
    12     5     4    1
