MODEL 1
REMARK VINA RESULT:      -7.3      0.000      0.000
REMARK SMILES O=C(O)CCc1ccccc1
REMARK SMILES IDX 4 1 2 2 1 3 3 4 5 6 6 7 7 8 11 9 8 10 10 11 9 12
REMARK H PARENT 3 5
REMARK Flexibility Score: inf
ROOT
ATOM      1  C   UNL     1       8.459  -0.799  -1.973  1.00  0.00     0.127 C 
ENDROOT
BRANCH   1   2
ATOM      2  C   UNL     1       8.465  -1.972  -2.866  1.00  0.00     0.303 C 
ATOM      3  O   UNL     1       9.562  -2.533  -3.131  1.00  0.00    -0.252 OA
BRANCH   2   4
ATOM      4  O   UNL     1       7.290  -2.487  -3.431  1.00  0.00    -0.481 OA
ATOM      5  H   UNL     1       7.133  -3.485  -3.394  1.00  0.00     0.296 HD
ENDBRANCH   2   4
ENDBRANCH   1   2
BRANCH   1   6
ATOM      6  C   UNL     1       7.172  -0.001  -2.083  1.00  0.00     0.047 C 
BRANCH   6   7
ATOM      7  C   UNL     1       6.530   0.161  -0.753  1.00  0.00    -0.047 A 
ATOM      8  C   UNL     1       6.632  -0.835   0.208  1.00  0.00     0.004 A 
ATOM      9  C   UNL     1       5.802   1.283  -0.405  1.00  0.00     0.004 A 
ATOM     10  C   UNL     1       6.040  -0.721   1.445  1.00  0.00     0.000 A 
ATOM     11  C   UNL     1       5.210   1.397   0.835  1.00  0.00     0.000 A 
ATOM     12  C   UNL     1       5.314   0.404   1.782  1.00  0.00     0.000 A 
ENDBRANCH   6   7
ENDBRANCH   1   6
TORSDOF 4
ENDMDL
MODEL 2
REMARK VINA RESULT:      -7.3      0.167      1.428
REMARK SMILES O=C(O)CCc1ccccc1
REMARK SMILES IDX 4 1 2 2 1 3 3 4 5 6 6 7 7 8 11 9 8 10 10 11 9 12
REMARK H PARENT 3 5
REMARK Flexibility Score: inf
ROOT
ATOM      1  C   UNL     1       8.413  -0.601  -2.178  1.00  0.00     0.127 C 
ENDROOT
BRANCH   1   2
ATOM      2  C   UNL     1       8.461  -1.877  -2.914  1.00  0.00     0.303 C 
ATOM      3  O   UNL     1       9.574  -2.441  -3.090  1.00  0.00    -0.252 OA
BRANCH   2   4
ATOM      4  O   UNL     1       7.307  -2.489  -3.426  1.00  0.00    -0.481 OA
ATOM      5  H   UNL     1       7.411  -3.323  -3.987  1.00  0.00     0.296 HD
ENDBRANCH   2   4
ENDBRANCH   1   2
BRANCH   1   6
ATOM      6  C   UNL     1       7.019  -0.001  -2.160  1.00  0.00     0.047 C 
BRANCH   6   7
ATOM      7  C   UNL     1       6.487   0.069  -0.774  1.00  0.00    -0.047 A 
ATOM      8  C   UNL     1       5.837   1.208  -0.322  1.00  0.00     0.004 A 
ATOM      9  C   UNL     1       6.615  -0.970   0.130  1.00  0.00     0.004 A 
ATOM     10  C   UNL     1       5.343   1.308   0.959  1.00  0.00     0.000 A 
ATOM     11  C   UNL     1       6.119  -0.869   1.412  1.00  0.00     0.000 A 
ATOM     12  C   UNL     1       5.477   0.266   1.854  1.00  0.00     0.000 A 
ENDBRANCH   6   7
ENDBRANCH   1   6
TORSDOF 4
ENDMDL
MODEL 3
REMARK VINA RESULT:      -6.8      3.363      5.079
REMARK SMILES O=C(O)CCc1ccccc1
REMARK SMILES IDX 4 1 2 2 1 3 3 4 5 6 6 7 7 8 11 9 8 10 10 11 9 12
REMARK H PARENT 3 5
REMARK Flexibility Score: inf
ROOT
ATOM      1  C   UNL     1       5.044   1.747   0.759  1.00  0.00     0.127 C 
ENDROOT
BRANCH   1   2
ATOM      2  C   UNL     1       4.549   1.044   1.956  1.00  0.00     0.303 C 
ATOM      3  O   UNL     1       5.272   0.158   2.488  1.00  0.00    -0.252 OA
BRANCH   2   4
ATOM      4  O   UNL     1       3.300   1.327   2.526  1.00  0.00    -0.481 OA
ATOM      5  H   UNL     1       2.694   1.988   2.059  1.00  0.00     0.296 HD
ENDBRANCH   2   4
ENDBRANCH   1   2
BRANCH   1   6
ATOM      6  C   UNL     1       6.557   1.867   0.748  1.00  0.00     0.047 C 
BRANCH   6   7
ATOM      7  C   UNL     1       7.149   1.048  -0.341  1.00  0.00    -0.047 A 
ATOM      8  C   UNL     1       8.484   1.194  -0.691  1.00  0.00     0.004 A 
ATOM      9  C   UNL     1       6.419   0.120  -1.061  1.00  0.00     0.004 A 
ATOM     10  C   UNL     1       9.059   0.459  -1.702  1.00  0.00     0.000 A 
ATOM     11  C   UNL     1       6.997  -0.616  -2.073  1.00  0.00     0.000 A 
ATOM     12  C   UNL     1       8.321  -0.464  -2.416  1.00  0.00     0.000 A 
ENDBRANCH   6   7
ENDBRANCH   1   6
TORSDOF 4
ENDMDL
MODEL 4
REMARK VINA RESULT:      -6.6      1.948      2.628
REMARK SMILES O=C(O)CCc1ccccc1
REMARK SMILES IDX 4 1 2 2 1 3 3 4 5 6 6 7 7 8 11 9 8 10 10 11 9 12
REMARK H PARENT 3 5
REMARK Flexibility Score: inf
ROOT
ATOM      1  C   UNL     1       8.169   0.247  -2.092  1.00  0.00     0.127 C 
ENDROOT
BRANCH   1   2
ATOM      2  C   UNL     1       9.347   0.363  -1.214  1.00  0.00     0.303 C 
ATOM      3  O   UNL     1       9.452  -0.411  -0.225  1.00  0.00    -0.252 OA
BRANCH   2   4
ATOM      4  O   UNL     1      10.360   1.307  -1.442  1.00  0.00    -0.481 OA
ATOM      5  H   UNL     1      11.028   1.130  -2.180  1.00  0.00     0.296 HD
ENDBRANCH   2   4
ENDBRANCH   1   2
BRANCH   1   6
ATOM      6  C   UNL     1       7.099  -0.652  -1.500  1.00  0.00     0.047 C 
BRANCH   6   7
ATOM      7  C   UNL     1       6.333   0.057  -0.441  1.00  0.00    -0.047 A 
ATOM      8  C   UNL     1       5.801   1.317  -0.677  1.00  0.00     0.004 A 
ATOM      9  C   UNL     1       6.120  -0.480   0.815  1.00  0.00     0.004 A 
ATOM     10  C   UNL     1       5.097   2.004   0.286  1.00  0.00     0.000 A 
ATOM     11  C   UNL     1       5.414   0.209   1.777  1.00  0.00     0.000 A 
ATOM     12  C   UNL     1       4.890   1.459   1.537  1.00  0.00     0.000 A 
ENDBRANCH   6   7
ENDBRANCH   1   6
TORSDOF 4
ENDMDL
MODEL 5
REMARK VINA RESULT:      -6.5      2.001      2.868
REMARK SMILES O=C(O)CCc1ccccc1
REMARK SMILES IDX 4 1 2 2 1 3 3 4 5 6 6 7 7 8 11 9 8 10 10 11 9 12
REMARK H PARENT 3 5
REMARK Flexibility Score: inf
ROOT
ATOM      1  C   UNL     1       8.311  -1.730   1.123  1.00  0.00     0.127 C 
ENDROOT
BRANCH   1   2
ATOM      2  C   UNL     1       8.715  -2.985   0.465  1.00  0.00     0.303 C 
ATOM      3  O   UNL     1       9.455  -3.792   1.089  1.00  0.00    -0.252 OA
BRANCH   2   4
ATOM      4  O   UNL     1       8.302  -3.315  -0.834  1.00  0.00    -0.481 OA
ATOM      5  H   UNL     1       8.621  -2.741  -1.603  1.00  0.00     0.296 HD
ENDBRANCH   2   4
ENDBRANCH   1   2
BRANCH   1   6
ATOM      6  C   UNL     1       6.812  -1.661   1.357  1.00  0.00     0.047 C 
BRANCH   6   7
ATOM      7  C   UNL     1       6.251  -0.384   0.844  1.00  0.00    -0.047 A 
ATOM      8  C   UNL     1       6.492   0.021  -0.461  1.00  0.00     0.004 A 
ATOM      9  C   UNL     1       5.481   0.462   1.622  1.00  0.00     0.004 A 
ATOM     10  C   UNL     1       5.996   1.203  -0.963  1.00  0.00     0.000 A 
ATOM     11  C   UNL     1       4.985   1.645   1.117  1.00  0.00     0.000 A 
ATOM     12  C   UNL     1       5.230   2.040  -0.178  1.00  0.00     0.000 A 
ENDBRANCH   6   7
ENDBRANCH   1   6
TORSDOF 4
ENDMDL
