@<TRIPOS>MOLECULE
/home/cewinharhar/GITHUB/reincatalyze/data/processed/docking_pred/2023-Apr-25-2248_maxeplen10_maxtrainstep1000_exh16_gamma099_lrac3e-4_lrcr1e-3/4e2e003c692afcef440410ba16f5bc8e831af6c9_ligand_2.pdbqt
 12 12 0 0 0
SMALL
GASTEIGER

@<TRIPOS>ATOM
      1  C          8.4250   -0.5850   -2.2160 C.3     1  UNL1        0.1270
      2  C          8.4640   -1.8760   -2.9250 C.2     1  UNL1        0.3030
      3  O          9.5740   -2.4530   -3.0860 O.2     1  UNL1       -0.2520
      4  O          7.3070   -2.4890   -3.4290 O.3     1  UNL1       -0.4810
      5  H          6.9480   -2.1820   -4.3230 H       1  UNL1        0.2960
      6  C          7.0300    0.0130   -2.1900 C.3     1  UNL1        0.0470
      7  C          6.5030    0.0760   -0.8020 C.2     1  UNL1       -0.0470
      8  C          5.8850    1.2250   -0.3310 C.2     1  UNL1        0.0040
      9  C          6.6040   -0.9800    0.0860 C.2     1  UNL1        0.0040
     10  C          5.3960    1.3190    0.9520 C.2     1  UNL1        0.0000
     11  C          6.1140   -0.8850    1.3700 C.2     1  UNL1        0.0000
     12  C          5.5030    0.2590    1.8310 C.2     1  UNL1        0.0000
@<TRIPOS>BOND
     1     5     4    1
     2     4     2    1
     3     3     2    2
     4     2     1    1
     5     1     6    1
     6     6     7    1
     7     7     8    2
     8     7     9    1
     9     8    10    1
    10     9    11    2
    11    10    12    2
    12    11    12    1
