@<TRIPOS>MOLECULE
/home/cewinharhar/GITHUB/reincatalyze/data/processed/docking_pred/2023-Apr-25-2248_maxeplen10_maxtrainstep1000_exh16_gamma099_lrac3e-4_lrcr1e-3/4e2e003c692afcef440410ba16f5bc8e831af6c9_ligand_2.pdbqt
 12 12 0 0 0
SMALL
GASTEIGER

@<TRIPOS>ATOM
      1  C          8.4100   -0.6990   -2.0640 C.3     1  UNL1        0.1270
      2  C          8.4030   -1.9290   -2.8750 C.2     1  UNL1        0.3030
      3  O          7.2990   -2.4200   -3.2340 O.2     1  UNL1       -0.2520
      4  O          9.5860   -2.5750   -3.2640 O.3     1  UNL1       -0.4810
      5  H         10.0930   -3.1110   -2.5730 H       1  UNL1        0.2960
      6  C          7.0770    0.0270   -2.1100 C.3     1  UNL1        0.0470
      7  C          6.4880    0.1470   -0.7510 C.2     1  UNL1       -0.0470
      8  C          6.6070   -0.8880    0.1660 C.2     1  UNL1        0.0040
      9  C          5.7950    1.2680   -0.3320 C.2     1  UNL1        0.0040
     10  C          6.0640   -0.8110    1.4280 C.2     1  UNL1        0.0000
     11  C          5.2520    1.3430    0.9330 C.2     1  UNL1        0.0000
     12  C          5.3730    0.3120    1.8360 C.2     1  UNL1        0.0000
@<TRIPOS>BOND
     1     4     2    1
     2     4     5    1
     3     3     2    2
     4     2     1    1
     5     6     1    1
     6     6     7    1
     7     7     9    2
     8     7     8    1
     9     9    11    1
    10     8    10    2
    11    11    12    2
    12    10    12    1
