@<TRIPOS>MOLECULE
/home/cewinharhar/GITHUB/reincatalyze/data/processed/docking_pred/2023-Apr-25-2248_maxeplen10_maxtrainstep1000_exh16_gamma099_lrac3e-4_lrcr1e-3/4e2e003c692afcef440410ba16f5bc8e831af6c9_ligand_2.pdbqt
 12 12 0 0 0
SMALL
GASTEIGER

@<TRIPOS>ATOM
      1  C          4.9830    1.7850    0.7280 C.3     1  UNL1        0.1270
      2  C          4.4550    1.1140    1.9290 C.2     1  UNL1        0.3030
      3  O          5.1380    0.2040    2.4730 O.2     1  UNL1       -0.2520
      4  O          3.2170    1.4550    2.4920 O.3     1  UNL1       -0.4810
      5  H          3.0730    2.4060    2.8040 H       1  UNL1        0.2960
      6  C          6.4960    1.9040    0.7560 C.3     1  UNL1        0.0470
      7  C          7.1140    1.0950   -0.3270 C.2     1  UNL1       -0.0470
      8  C          8.4570    1.2420   -0.6430 C.2     1  UNL1        0.0040
      9  C          6.4010    0.1750   -1.0750 C.2     1  UNL1        0.0040
     10  C          9.0560    0.5160   -1.6460 C.2     1  UNL1        0.0000
     11  C          7.0020   -0.5520   -2.0800 C.2     1  UNL1        0.0000
     12  C          8.3350   -0.3990   -2.3870 C.2     1  UNL1        0.0000
@<TRIPOS>BOND
     1    12    11    2
     2    12    10    1
     3    11     9    1
     4    10     8    2
     5     9     7    2
     6     8     7    1
     7     7     6    1
     8     1     6    1
     9     1     2    1
    10     2     3    2
    11     2     4    1
    12     4     5    1
