@<TRIPOS>MOLECULE
/home/cewinharhar/GITHUB/reincatalyze/data/processed/docking_pred/2023-Apr-25-2248_maxeplen10_maxtrainstep1000_exh16_gamma099_lrac3e-4_lrcr1e-3/4e2e003c692afcef440410ba16f5bc8e831af6c9_ligand_2.pdbqt
 12 12 0 0 0
SMALL
GASTEIGER

@<TRIPOS>ATOM
      1  C          5.4590    2.9380    0.0540 C.3     1  UNL1        0.1270
      2  C          6.2580    3.8870    0.8490 C.2     1  UNL1        0.3030
      3  O          6.9260    4.7750    0.2520 O.2     1  UNL1       -0.2520
      4  O          6.3010    3.8390    2.2500 O.3     1  UNL1       -0.4810
      5  H          6.8170    3.0900    2.6920 H       1  UNL1        0.2960
      6  C          4.8370    1.8510    0.9130 C.3     1  UNL1        0.0470
      7  C          5.6780    0.6260    0.9130 C.2     1  UNL1       -0.0470
      8  C          5.7640   -0.1730    2.0440 C.2     1  UNL1        0.0040
      9  C          6.4150    0.2240   -0.1850 C.2     1  UNL1        0.0040
     10  C          6.5410   -1.3080    2.0800 C.2     1  UNL1        0.0000
     11  C          7.1930   -0.9130   -0.1480 C.2     1  UNL1        0.0000
     12  C          7.2750   -1.7000    0.9780 C.2     1  UNL1        0.0000
@<TRIPOS>BOND
     1     9    11    1
     2     9     7    2
     3    11    12    2
     4     1     2    1
     5     1     6    1
     6     3     2    2
     7     2     4    1
     8     6     7    1
     9     7     8    1
    10    12    10    1
    11     8    10    2
    12     4     5    1
