MODEL 1
REMARK VINA RESULT:      -7.3      0.000      0.000
REMARK SMILES O=C(O)CCc1ccccc1
REMARK SMILES IDX 4 1 2 2 1 3 3 4 5 6 6 7 7 8 11 9 8 10 10 11 9 12
REMARK H PARENT 3 5
REMARK Flexibility Score: inf
ROOT
ATOM      1  C   UNL     1       8.425  -0.585  -2.216  1.00  0.00     0.127 C 
ENDROOT
BRANCH   1   2
ATOM      2  C   UNL     1       8.464  -1.876  -2.925  1.00  0.00     0.303 C 
ATOM      3  O   UNL     1       9.574  -2.453  -3.086  1.00  0.00    -0.252 OA
BRANCH   2   4
ATOM      4  O   UNL     1       7.307  -2.489  -3.429  1.00  0.00    -0.481 OA
ATOM      5  H   UNL     1       6.948  -2.182  -4.323  1.00  0.00     0.296 HD
ENDBRANCH   2   4
ENDBRANCH   1   2
BRANCH   1   6
ATOM      6  C   UNL     1       7.030   0.013  -2.190  1.00  0.00     0.047 C 
BRANCH   6   7
ATOM      7  C   UNL     1       6.503   0.076  -0.802  1.00  0.00    -0.047 A 
ATOM      8  C   UNL     1       5.885   1.225  -0.331  1.00  0.00     0.004 A 
ATOM      9  C   UNL     1       6.604  -0.980   0.086  1.00  0.00     0.004 A 
ATOM     10  C   UNL     1       5.396   1.319   0.952  1.00  0.00     0.000 A 
ATOM     11  C   UNL     1       6.114  -0.885   1.370  1.00  0.00     0.000 A 
ATOM     12  C   UNL     1       5.503   0.259   1.831  1.00  0.00     0.000 A 
ENDBRANCH   6   7
ENDBRANCH   1   6
TORSDOF 4
ENDMDL
MODEL 2
REMARK VINA RESULT:      -7.3      0.144      1.725
REMARK SMILES O=C(O)CCc1ccccc1
REMARK SMILES IDX 4 1 2 2 1 3 3 4 5 6 6 7 7 8 11 9 8 10 10 11 9 12
REMARK H PARENT 3 5
REMARK Flexibility Score: inf
ROOT
ATOM      1  C   UNL     1       8.410  -0.699  -2.064  1.00  0.00     0.127 C 
ENDROOT
BRANCH   1   2
ATOM      2  C   UNL     1       8.403  -1.929  -2.875  1.00  0.00     0.303 C 
ATOM      3  O   UNL     1       7.299  -2.420  -3.234  1.00  0.00    -0.252 OA
BRANCH   2   4
ATOM      4  O   UNL     1       9.586  -2.575  -3.264  1.00  0.00    -0.481 OA
ATOM      5  H   UNL     1      10.093  -3.111  -2.573  1.00  0.00     0.296 HD
ENDBRANCH   2   4
ENDBRANCH   1   2
BRANCH   1   6
ATOM      6  C   UNL     1       7.077   0.027  -2.110  1.00  0.00     0.047 C 
BRANCH   6   7
ATOM      7  C   UNL     1       6.488   0.147  -0.751  1.00  0.00    -0.047 A 
ATOM      8  C   UNL     1       6.607  -0.888   0.166  1.00  0.00     0.004 A 
ATOM      9  C   UNL     1       5.795   1.268  -0.332  1.00  0.00     0.004 A 
ATOM     10  C   UNL     1       6.064  -0.811   1.428  1.00  0.00     0.000 A 
ATOM     11  C   UNL     1       5.252   1.343   0.933  1.00  0.00     0.000 A 
ATOM     12  C   UNL     1       5.373   0.312   1.836  1.00  0.00     0.000 A 
ENDBRANCH   6   7
ENDBRANCH   1   6
TORSDOF 4
ENDMDL
MODEL 3
REMARK VINA RESULT:      -6.8      3.400      5.074
REMARK SMILES O=C(O)CCc1ccccc1
REMARK SMILES IDX 4 1 2 2 1 3 3 4 5 6 6 7 7 8 11 9 8 10 10 11 9 12
REMARK H PARENT 3 5
REMARK Flexibility Score: inf
ROOT
ATOM      1  C   UNL     1       4.983   1.785   0.728  1.00  0.00     0.127 C 
ENDROOT
BRANCH   1   2
ATOM      2  C   UNL     1       4.455   1.114   1.929  1.00  0.00     0.303 C 
ATOM      3  O   UNL     1       5.138   0.204   2.473  1.00  0.00    -0.252 OA
BRANCH   2   4
ATOM      4  O   UNL     1       3.217   1.455   2.492  1.00  0.00    -0.481 OA
ATOM      5  H   UNL     1       3.073   2.406   2.804  1.00  0.00     0.296 HD
ENDBRANCH   2   4
ENDBRANCH   1   2
BRANCH   1   6
ATOM      6  C   UNL     1       6.496   1.904   0.756  1.00  0.00     0.047 C 
BRANCH   6   7
ATOM      7  C   UNL     1       7.114   1.095  -0.327  1.00  0.00    -0.047 A 
ATOM      8  C   UNL     1       8.457   1.242  -0.643  1.00  0.00     0.004 A 
ATOM      9  C   UNL     1       6.401   0.175  -1.075  1.00  0.00     0.004 A 
ATOM     10  C   UNL     1       9.056   0.516  -1.646  1.00  0.00     0.000 A 
ATOM     11  C   UNL     1       7.002  -0.552  -2.080  1.00  0.00     0.000 A 
ATOM     12  C   UNL     1       8.335  -0.399  -2.387  1.00  0.00     0.000 A 
ENDBRANCH   6   7
ENDBRANCH   1   6
TORSDOF 4
ENDMDL
MODEL 4
REMARK VINA RESULT:      -6.8      3.389      5.080
REMARK SMILES O=C(O)CCc1ccccc1
REMARK SMILES IDX 4 1 2 2 1 3 3 4 5 6 6 7 7 8 11 9 8 10 10 11 9 12
REMARK H PARENT 3 5
REMARK Flexibility Score: inf
ROOT
ATOM      1  C   UNL     1       4.987   1.789   0.697  1.00  0.00     0.127 C 
ENDROOT
BRANCH   1   2
ATOM      2  C   UNL     1       4.475   1.116   1.904  1.00  0.00     0.303 C 
ATOM      3  O   UNL     1       5.169   0.212   2.442  1.00  0.00    -0.252 OA
BRANCH   2   4
ATOM      4  O   UNL     1       3.239   1.448   2.478  1.00  0.00    -0.481 OA
ATOM      5  H   UNL     1       2.469   0.800   2.378  1.00  0.00     0.296 HD
ENDBRANCH   2   4
ENDBRANCH   1   2
BRANCH   1   6
ATOM      6  C   UNL     1       6.496   1.948   0.726  1.00  0.00     0.047 C 
BRANCH   6   7
ATOM      7  C   UNL     1       7.137   1.146  -0.349  1.00  0.00    -0.047 A 
ATOM      8  C   UNL     1       6.390   0.264  -1.115  1.00  0.00     0.004 A 
ATOM      9  C   UNL     1       8.488   1.223  -0.636  1.00  0.00     0.004 A 
ATOM     10  C   UNL     1       6.955  -0.500  -2.110  1.00  0.00     0.000 A 
ATOM     11  C   UNL     1       9.053   0.458  -1.633  1.00  0.00     0.000 A 
ATOM     12  C   UNL     1       8.305  -0.417  -2.388  1.00  0.00     0.000 A 
ENDBRANCH   6   7
ENDBRANCH   1   6
TORSDOF 4
ENDMDL
MODEL 5
REMARK VINA RESULT:      -6.7      3.829      4.990
REMARK SMILES O=C(O)CCc1ccccc1
REMARK SMILES IDX 4 1 2 2 1 3 3 4 5 6 6 7 7 8 11 9 8 10 10 11 9 12
REMARK H PARENT 3 5
REMARK Flexibility Score: inf
ROOT
ATOM      1  C   UNL     1       5.459   2.938   0.054  1.00  0.00     0.127 C 
ENDROOT
BRANCH   1   2
ATOM      2  C   UNL     1       6.258   3.887   0.849  1.00  0.00     0.303 C 
ATOM      3  O   UNL     1       6.926   4.775   0.252  1.00  0.00    -0.252 OA
BRANCH   2   4
ATOM      4  O   UNL     1       6.301   3.839   2.250  1.00  0.00    -0.481 OA
ATOM      5  H   UNL     1       6.817   3.090   2.692  1.00  0.00     0.296 HD
ENDBRANCH   2   4
ENDBRANCH   1   2
BRANCH   1   6
ATOM      6  C   UNL     1       4.837   1.851   0.913  1.00  0.00     0.047 C 
BRANCH   6   7
ATOM      7  C   UNL     1       5.678   0.626   0.913  1.00  0.00    -0.047 A 
ATOM      8  C   UNL     1       5.764  -0.173   2.044  1.00  0.00     0.004 A 
ATOM      9  C   UNL     1       6.415   0.224  -0.185  1.00  0.00     0.004 A 
ATOM     10  C   UNL     1       6.541  -1.308   2.080  1.00  0.00     0.000 A 
ATOM     11  C   UNL     1       7.193  -0.913  -0.148  1.00  0.00     0.000 A 
ATOM     12  C   UNL     1       7.275  -1.700   0.978  1.00  0.00     0.000 A 
ENDBRANCH   6   7
ENDBRANCH   1   6
TORSDOF 4
ENDMDL
