@<TRIPOS>MOLECULE
/home/cewinharhar/GITHUB/reincatalyze/data/processed/docking_pred/2023-Apr-25-2248_maxeplen10_maxtrainstep1000_exh16_gamma099_lrac3e-4_lrcr1e-3/4e2e003c692afcef440410ba16f5bc8e831af6c9_ligand_2.pdbqt
 12 12 0 0 0
SMALL
GASTEIGER

@<TRIPOS>ATOM
      1  C          4.9870    1.7890    0.6970 C.3     1  UNL1        0.1270
      2  C          4.4750    1.1160    1.9040 C.2     1  UNL1        0.3030
      3  O          5.1690    0.2120    2.4420 O.2     1  UNL1       -0.2520
      4  O          3.2390    1.4480    2.4780 O.3     1  UNL1       -0.4810
      5  H          2.4690    0.8000    2.3780 H       1  UNL1        0.2960
      6  C          6.4960    1.9480    0.7260 C.3     1  UNL1        0.0470
      7  C          7.1370    1.1460   -0.3490 C.2     1  UNL1       -0.0470
      8  C          6.3900    0.2640   -1.1150 C.2     1  UNL1        0.0040
      9  C          8.4880    1.2230   -0.6360 C.2     1  UNL1        0.0040
     10  C          6.9550   -0.5000   -2.1100 C.2     1  UNL1        0.0000
     11  C          9.0530    0.4580   -1.6330 C.2     1  UNL1        0.0000
     12  C          8.3050   -0.4170   -2.3880 C.2     1  UNL1        0.0000
@<TRIPOS>BOND
     1    12    10    2
     2    12    11    1
     3    10     8    1
     4    11     9    2
     5     8     7    2
     6     9     7    1
     7     7     6    1
     8     1     6    1
     9     1     2    1
    10     2     3    2
    11     2     4    1
    12     5     4    1
