MODEL 1
REMARK VINA RESULT:      -7.4      0.000      0.000
REMARK SMILES O=C(O)CCc1ccccc1
REMARK SMILES IDX 4 1 2 2 1 3 3 4 5 6 6 7 7 8 11 9 8 10 10 11 9 12
REMARK H PARENT 3 5
REMARK Flexibility Score: inf
ROOT
ATOM      1  C   UNL     1       8.397  -0.761  -2.011  1.00  0.00     0.127 C 
ENDROOT
BRANCH   1   2
ATOM      2  C   UNL     1       8.430  -1.956  -2.873  1.00  0.00     0.303 C 
ATOM      3  O   UNL     1       9.536  -2.519  -3.098  1.00  0.00    -0.252 OA
BRANCH   2   4
ATOM      4  O   UNL     1       7.271  -2.493  -3.451  1.00  0.00    -0.481 OA
ATOM      5  H   UNL     1       7.189  -2.494  -4.459  1.00  0.00     0.296 HD
ENDBRANCH   2   4
ENDBRANCH   1   2
BRANCH   1   6
ATOM      6  C   UNL     1       7.070  -0.029  -2.096  1.00  0.00     0.047 C 
BRANCH   6   7
ATOM      7  C   UNL     1       6.470   0.142  -0.747  1.00  0.00    -0.047 A 
ATOM      8  C   UNL     1       6.564  -0.865   0.203  1.00  0.00     0.004 A 
ATOM      9  C   UNL     1       5.789   1.286  -0.370  1.00  0.00     0.004 A 
ATOM     10  C   UNL     1       6.010  -0.741   1.457  1.00  0.00     0.000 A 
ATOM     11  C   UNL     1       5.235   1.408   0.886  1.00  0.00     0.000 A 
ATOM     12  C   UNL     1       5.331   0.404   1.822  1.00  0.00     0.000 A 
ENDBRANCH   6   7
ENDBRANCH   1   6
TORSDOF 4
ENDMDL
MODEL 2
REMARK VINA RESULT:      -7.3      0.094      1.423
REMARK SMILES O=C(O)CCc1ccccc1
REMARK SMILES IDX 4 1 2 2 1 3 3 4 5 6 6 7 7 8 11 9 8 10 10 11 9 12
REMARK H PARENT 3 5
REMARK Flexibility Score: inf
ROOT
ATOM      1  C   UNL     1       8.415  -0.672  -2.106  1.00  0.00     0.127 C 
ENDROOT
BRANCH   1   2
ATOM      2  C   UNL     1       8.442  -1.919  -2.890  1.00  0.00     0.303 C 
ATOM      3  O   UNL     1       9.546  -2.498  -3.082  1.00  0.00    -0.252 OA
BRANCH   2   4
ATOM      4  O   UNL     1       7.280  -2.488  -3.431  1.00  0.00    -0.481 OA
ATOM      5  H   UNL     1       6.399  -2.324  -2.963  1.00  0.00     0.296 HD
ENDBRANCH   2   4
ENDBRANCH   1   2
BRANCH   1   6
ATOM      6  C   UNL     1       7.046  -0.017  -2.117  1.00  0.00     0.047 C 
BRANCH   6   7
ATOM      7  C   UNL     1       6.486   0.070  -0.742  1.00  0.00    -0.047 A 
ATOM      8  C   UNL     1       5.824   1.213  -0.319  1.00  0.00     0.004 A 
ATOM      9  C   UNL     1       6.599  -0.956   0.178  1.00  0.00     0.004 A 
ATOM     10  C   UNL     1       5.304   1.329   0.950  1.00  0.00     0.000 A 
ATOM     11  C   UNL     1       6.078  -0.838   1.449  1.00  0.00     0.000 A 
ATOM     12  C   UNL     1       5.423   0.300   1.862  1.00  0.00     0.000 A 
ENDBRANCH   6   7
ENDBRANCH   1   6
TORSDOF 4
ENDMDL
MODEL 3
REMARK VINA RESULT:      -6.8      3.396      5.090
REMARK SMILES O=C(O)CCc1ccccc1
REMARK SMILES IDX 4 1 2 2 1 3 3 4 5 6 6 7 7 8 11 9 8 10 10 11 9 12
REMARK H PARENT 3 5
REMARK Flexibility Score: inf
ROOT
ATOM      1  C   UNL     1       5.013   1.774   0.719  1.00  0.00     0.127 C 
ENDROOT
BRANCH   1   2
ATOM      2  C   UNL     1       4.477   1.114   1.922  1.00  0.00     0.303 C 
ATOM      3  O   UNL     1       5.158   0.209   2.478  1.00  0.00    -0.252 OA
BRANCH   2   4
ATOM      4  O   UNL     1       3.235   1.458   2.474  1.00  0.00    -0.481 OA
ATOM      5  H   UNL     1       2.873   2.387   2.308  1.00  0.00     0.296 HD
ENDBRANCH   2   4
ENDBRANCH   1   2
BRANCH   1   6
ATOM      6  C   UNL     1       6.525   1.901   0.759  1.00  0.00     0.047 C 
BRANCH   6   7
ATOM      7  C   UNL     1       7.155   1.115  -0.334  1.00  0.00    -0.047 A 
ATOM      8  C   UNL     1       6.405   0.220  -1.084  1.00  0.00     0.004 A 
ATOM      9  C   UNL     1       8.496   1.218  -0.653  1.00  0.00     0.004 A 
ATOM     10  C   UNL     1       6.961  -0.530  -2.095  1.00  0.00     0.000 A 
ATOM     11  C   UNL     1       9.051   0.466  -1.666  1.00  0.00     0.000 A 
ATOM     12  C   UNL     1       8.302  -0.421  -2.405  1.00  0.00     0.000 A 
ENDBRANCH   6   7
ENDBRANCH   1   6
TORSDOF 4
ENDMDL
MODEL 4
REMARK VINA RESULT:      -6.7      3.831      4.991
REMARK SMILES O=C(O)CCc1ccccc1
REMARK SMILES IDX 4 1 2 2 1 3 3 4 5 6 6 7 7 8 11 9 8 10 10 11 9 12
REMARK H PARENT 3 5
REMARK Flexibility Score: inf
ROOT
ATOM      1  C   UNL     1       5.565   2.859  -0.006  1.00  0.00     0.127 C 
ENDROOT
BRANCH   1   2
ATOM      2  C   UNL     1       6.292   3.845   0.812  1.00  0.00     0.303 C 
ATOM      3  O   UNL     1       6.930   4.768   0.235  1.00  0.00    -0.252 OA
BRANCH   2   4
ATOM      4  O   UNL     1       6.300   3.795   2.213  1.00  0.00    -0.481 OA
ATOM      5  H   UNL     1       5.456   4.044   2.710  1.00  0.00     0.296 HD
ENDBRANCH   2   4
ENDBRANCH   1   2
BRANCH   1   6
ATOM      6  C   UNL     1       4.870   1.810   0.844  1.00  0.00     0.047 C 
BRANCH   6   7
ATOM      7  C   UNL     1       5.692   0.575   0.943  1.00  0.00    -0.047 A 
ATOM      8  C   UNL     1       6.433   0.129  -0.142  1.00  0.00     0.004 A 
ATOM      9  C   UNL     1       5.756  -0.191   2.093  1.00  0.00     0.004 A 
ATOM     10  C   UNL     1       7.195  -1.015  -0.086  1.00  0.00     0.000 A 
ATOM     11  C   UNL     1       6.520  -1.337   2.148  1.00  0.00     0.000 A 
ATOM     12  C   UNL     1       7.252  -1.773   1.067  1.00  0.00     0.000 A 
ENDBRANCH   6   7
ENDBRANCH   1   6
TORSDOF 4
ENDMDL
MODEL 5
REMARK VINA RESULT:      -6.6      2.073      2.737
REMARK SMILES O=C(O)CCc1ccccc1
REMARK SMILES IDX 4 1 2 2 1 3 3 4 5 6 6 7 7 8 11 9 8 10 10 11 9 12
REMARK H PARENT 3 5
REMARK Flexibility Score: inf
ROOT
ATOM      1  C   UNL     1       8.517   0.580  -1.668  1.00  0.00     0.127 C 
ENDROOT
BRANCH   1   2
ATOM      2  C   UNL     1       9.671   0.248  -0.813  1.00  0.00     0.303 C 
ATOM      3  O   UNL     1       9.501  -0.519   0.174  1.00  0.00    -0.252 OA
BRANCH   2   4
ATOM      4  O   UNL     1      10.955   0.755  -1.060  1.00  0.00    -0.481 OA
ATOM      5  H   UNL     1      11.705   0.102  -1.244  1.00  0.00     0.296 HD
ENDBRANCH   2   4
ENDBRANCH   1   2
BRANCH   1   6
ATOM      6  C   UNL     1       7.331  -0.332  -1.410  1.00  0.00     0.047 C 
BRANCH   6   7
ATOM      7  C   UNL     1       6.439   0.236  -0.367  1.00  0.00    -0.047 A 
ATOM      8  C   UNL     1       5.817   1.462  -0.558  1.00  0.00     0.004 A 
ATOM      9  C   UNL     1       6.189  -0.403   0.834  1.00  0.00     0.004 A 
ATOM     10  C   UNL     1       4.993   2.020   0.393  1.00  0.00     0.000 A 
ATOM     11  C   UNL     1       5.364   0.158   1.786  1.00  0.00     0.000 A 
ATOM     12  C   UNL     1       4.752   1.374   1.589  1.00  0.00     0.000 A 
ENDBRANCH   6   7
ENDBRANCH   1   6
TORSDOF 4
ENDMDL
