@<TRIPOS>MOLECULE
/home/cewinharhar/GITHUB/reincatalyze/data/processed/docking_pred/2023-Apr-25-2248_maxeplen10_maxtrainstep1000_exh16_gamma099_lrac3e-4_lrcr1e-3/4f8338f1f65f27d68c3e57a6b5041c9c59ec4c55_ligand_2.pdbqt
 12 12 0 0 0
SMALL
GASTEIGER

@<TRIPOS>ATOM
      1  C          8.5170    0.5800   -1.6680 C.3     1  UNL1        0.1270
      2  C          9.6710    0.2480   -0.8130 C.2     1  UNL1        0.3030
      3  O          9.5010   -0.5190    0.1740 O.2     1  UNL1       -0.2520
      4  O         10.9550    0.7550   -1.0600 O.3     1  UNL1       -0.4810
      5  H         11.7050    0.1020   -1.2440 H       1  UNL1        0.2960
      6  C          7.3310   -0.3320   -1.4100 C.3     1  UNL1        0.0470
      7  C          6.4390    0.2360   -0.3670 C.2     1  UNL1       -0.0470
      8  C          5.8170    1.4620   -0.5580 C.2     1  UNL1        0.0040
      9  C          6.1890   -0.4030    0.8340 C.2     1  UNL1        0.0040
     10  C          4.9930    2.0200    0.3930 C.2     1  UNL1        0.0000
     11  C          5.3640    0.1580    1.7860 C.2     1  UNL1        0.0000
     12  C          4.7520    1.3740    1.5890 C.2     1  UNL1        0.0000
@<TRIPOS>BOND
     1     1     6    1
     2     1     2    1
     3     6     7    1
     4     5     4    1
     5     4     2    1
     6     2     3    2
     7     8     7    2
     8     8    10    1
     9     7     9    1
    10    10    12    2
    11     9    11    2
    12    12    11    1
