@<TRIPOS>MOLECULE
/home/cewinharhar/GITHUB/reincatalyze/data/processed/docking_pred/2023-Apr-25-2248_maxeplen10_maxtrainstep1000_exh16_gamma099_lrac3e-4_lrcr1e-3/4f8338f1f65f27d68c3e57a6b5041c9c59ec4c55_ligand_2.pdbqt
 12 12 0 0 0
SMALL
GASTEIGER

@<TRIPOS>ATOM
      1  C          5.5650    2.8590   -0.0060 C.3     1  UNL1        0.1270
      2  C          6.2920    3.8450    0.8120 C.2     1  UNL1        0.3030
      3  O          6.9300    4.7680    0.2350 O.2     1  UNL1       -0.2520
      4  O          6.3000    3.7950    2.2130 O.3     1  UNL1       -0.4810
      5  H          5.4560    4.0440    2.7100 H       1  UNL1        0.2960
      6  C          4.8700    1.8100    0.8440 C.3     1  UNL1        0.0470
      7  C          5.6920    0.5750    0.9430 C.2     1  UNL1       -0.0470
      8  C          6.4330    0.1290   -0.1420 C.2     1  UNL1        0.0040
      9  C          5.7560   -0.1910    2.0930 C.2     1  UNL1        0.0040
     10  C          7.1950   -1.0150   -0.0860 C.2     1  UNL1        0.0000
     11  C          6.5200   -1.3370    2.1480 C.2     1  UNL1        0.0000
     12  C          7.2520   -1.7730    1.0670 C.2     1  UNL1        0.0000
@<TRIPOS>BOND
     1     8    10    1
     2     8     7    2
     3    10    12    2
     4     1     2    1
     5     1     6    1
     6     3     2    2
     7     2     4    1
     8     6     7    1
     9     7     9    1
    10    12    11    1
    11     9    11    2
    12     4     5    1
