@<TRIPOS>MOLECULE
/home/cewinharhar/GITHUB/reincatalyze/data/processed/docking_pred/2023-Apr-25-2248_maxeplen10_maxtrainstep1000_exh16_gamma099_lrac3e-4_lrcr1e-3/4f8338f1f65f27d68c3e57a6b5041c9c59ec4c55_ligand_2.pdbqt
 12 12 0 0 0
SMALL
GASTEIGER

@<TRIPOS>ATOM
      1  C          8.3970   -0.7610   -2.0110 C.3     1  UNL1        0.1270
      2  C          8.4300   -1.9560   -2.8730 C.2     1  UNL1        0.3030
      3  O          9.5360   -2.5190   -3.0980 O.2     1  UNL1       -0.2520
      4  O          7.2710   -2.4930   -3.4510 O.3     1  UNL1       -0.4810
      5  H          7.1890   -2.4940   -4.4590 H       1  UNL1        0.2960
      6  C          7.0700   -0.0290   -2.0960 C.3     1  UNL1        0.0470
      7  C          6.4700    0.1420   -0.7470 C.2     1  UNL1       -0.0470
      8  C          6.5640   -0.8650    0.2030 C.2     1  UNL1        0.0040
      9  C          5.7890    1.2860   -0.3700 C.2     1  UNL1        0.0040
     10  C          6.0100   -0.7410    1.4570 C.2     1  UNL1        0.0000
     11  C          5.2350    1.4080    0.8860 C.2     1  UNL1        0.0000
     12  C          5.3310    0.4040    1.8220 C.2     1  UNL1        0.0000
@<TRIPOS>BOND
     1     5     4    1
     2     4     2    1
     3     3     2    2
     4     2     1    1
     5     6     1    1
     6     6     7    1
     7     7     9    2
     8     7     8    1
     9     9    11    1
    10     8    10    2
    11    11    12    2
    12    10    12    1
