@<TRIPOS>MOLECULE
/home/cewinharhar/GITHUB/reincatalyze/data/processed/docking_pred/2023-Apr-25-2248_maxeplen10_maxtrainstep1000_exh16_gamma099_lrac3e-4_lrcr1e-3/4f8338f1f65f27d68c3e57a6b5041c9c59ec4c55_ligand_2.pdbqt
 12 12 0 0 0
SMALL
GASTEIGER

@<TRIPOS>ATOM
      1  C          8.4150   -0.6720   -2.1060 C.3     1  UNL1        0.1270
      2  C          8.4420   -1.9190   -2.8900 C.2     1  UNL1        0.3030
      3  O          9.5460   -2.4980   -3.0820 O.2     1  UNL1       -0.2520
      4  O          7.2800   -2.4880   -3.4310 O.3     1  UNL1       -0.4810
      5  H          6.3990   -2.3240   -2.9630 H       1  UNL1        0.2960
      6  C          7.0460   -0.0170   -2.1170 C.3     1  UNL1        0.0470
      7  C          6.4860    0.0700   -0.7420 C.2     1  UNL1       -0.0470
      8  C          5.8240    1.2130   -0.3190 C.2     1  UNL1        0.0040
      9  C          6.5990   -0.9560    0.1780 C.2     1  UNL1        0.0040
     10  C          5.3040    1.3290    0.9500 C.2     1  UNL1        0.0000
     11  C          6.0780   -0.8380    1.4490 C.2     1  UNL1        0.0000
     12  C          5.4230    0.3000    1.8620 C.2     1  UNL1        0.0000
@<TRIPOS>BOND
     1     4     5    1
     2     4     2    1
     3     3     2    2
     4     2     1    1
     5     6     1    1
     6     6     7    1
     7     7     8    2
     8     7     9    1
     9     8    10    1
    10     9    11    2
    11    10    12    2
    12    11    12    1
