@<TRIPOS>MOLECULE
/home/cewinharhar/GITHUB/reincatalyze/data/processed/docking_pred/2023-Apr-25-2248_maxeplen10_maxtrainstep1000_exh16_gamma099_lrac3e-4_lrcr1e-3/4f8338f1f65f27d68c3e57a6b5041c9c59ec4c55_ligand_2.pdbqt
 12 12 0 0 0
SMALL
GASTEIGER

@<TRIPOS>ATOM
      1  C          5.0130    1.7740    0.7190 C.3     1  UNL1        0.1270
      2  C          4.4770    1.1140    1.9220 C.2     1  UNL1        0.3030
      3  O          5.1580    0.2090    2.4780 O.2     1  UNL1       -0.2520
      4  O          3.2350    1.4580    2.4740 O.3     1  UNL1       -0.4810
      5  H          2.8730    2.3870    2.3080 H       1  UNL1        0.2960
      6  C          6.5250    1.9010    0.7590 C.3     1  UNL1        0.0470
      7  C          7.1550    1.1150   -0.3340 C.2     1  UNL1       -0.0470
      8  C          6.4050    0.2200   -1.0840 C.2     1  UNL1        0.0040
      9  C          8.4960    1.2180   -0.6530 C.2     1  UNL1        0.0040
     10  C          6.9610   -0.5300   -2.0950 C.2     1  UNL1        0.0000
     11  C          9.0510    0.4660   -1.6660 C.2     1  UNL1        0.0000
     12  C          8.3020   -0.4210   -2.4050 C.2     1  UNL1        0.0000
@<TRIPOS>BOND
     1    12    10    2
     2    12    11    1
     3    10     8    1
     4    11     9    2
     5     8     7    2
     6     9     7    1
     7     7     6    1
     8     1     6    1
     9     1     2    1
    10     2     4    1
    11     2     3    2
    12     5     4    1
