@<TRIPOS>MOLECULE
/home/cewinharhar/GITHUB/reincatalyze/data/processed/docking_pred/2023-Apr-25-2248_maxeplen10_maxtrainstep1000_exh16_gamma099_lrac3e-4_lrcr1e-3/4f8485ffa73320ccf1b94cd7b1ea99ef776c762b_ligand_2.pdbqt
 12 12 0 0 0
SMALL
GASTEIGER

@<TRIPOS>ATOM
      1  C          8.4080   -1.5650    2.5740 C.3     1  UNL1        0.1270
      2  C          9.5320   -2.3580    2.0440 C.2     1  UNL1        0.3030
      3  O          9.2850   -3.3680    1.3300 O.2     1  UNL1       -0.2520
      4  O         10.8690   -2.0260    2.3040 O.3     1  UNL1       -0.4810
      5  H         11.0750   -1.1160    2.6930 H       1  UNL1        0.2960
      6  C          7.0940   -1.9060    1.8950 C.3     1  UNL1        0.0470
      7  C          6.6270   -0.7810    1.0430 C.2     1  UNL1       -0.0470
      8  C          5.8200    0.2170    1.5690 C.2     1  UNL1        0.0040
      9  C          6.9540   -0.6710   -0.2960 C.2     1  UNL1        0.0040
     10  C          5.3630    1.2660    0.8040 C.2     1  UNL1        0.0000
     11  C          6.4950    0.3800   -1.0610 C.2     1  UNL1        0.0000
     12  C          5.6940    1.3660   -0.5320 C.2     1  UNL1        0.0000
@<TRIPOS>BOND
     1    11    12    2
     2    11     9    1
     3    12    10    1
     4     9     7    2
     5    10     8    2
     6     7     8    1
     7     7     6    1
     8     3     2    2
     9     6     1    1
    10     2     4    1
    11     2     1    1
    12     4     5    1
