MODEL 1
REMARK VINA RESULT:      -7.0      0.000      0.000
REMARK SMILES O=C(O)CCc1ccccc1
REMARK SMILES IDX 4 1 2 2 1 3 3 4 5 6 6 7 7 8 11 9 8 10 10 11 9 12
REMARK H PARENT 3 5
REMARK Flexibility Score: inf
ROOT
ATOM      1  C   UNL     1       8.431  -0.588  -2.201  1.00  0.00     0.127 C 
ENDROOT
BRANCH   1   2
ATOM      2  C   UNL     1       8.454  -1.869  -2.928  1.00  0.00     0.303 C 
ATOM      3  O   UNL     1       9.557  -2.455  -3.103  1.00  0.00    -0.252 OA
BRANCH   2   4
ATOM      4  O   UNL     1       7.288  -2.464  -3.433  1.00  0.00    -0.481 OA
ATOM      5  H   UNL     1       6.747  -1.959  -4.122  1.00  0.00     0.296 HD
ENDBRANCH   2   4
ENDBRANCH   1   2
BRANCH   1   6
ATOM      6  C   UNL     1       7.035   0.002  -2.121  1.00  0.00     0.047 C 
BRANCH   6   7
ATOM      7  C   UNL     1       6.529  -0.015  -0.724  1.00  0.00    -0.047 A 
ATOM      8  C   UNL     1       6.663  -1.149   0.064  1.00  0.00     0.004 A 
ATOM      9  C   UNL     1       5.900   1.071  -0.143  1.00  0.00     0.004 A 
ATOM     10  C   UNL     1       6.196  -1.200   1.357  1.00  0.00     0.000 A 
ATOM     11  C   UNL     1       5.433   1.019   1.153  1.00  0.00     0.000 A 
ATOM     12  C   UNL     1       5.568  -0.111   1.928  1.00  0.00     0.000 A 
ENDBRANCH   6   7
ENDBRANCH   1   6
TORSDOF 4
ENDMDL
MODEL 2
REMARK VINA RESULT:      -6.9      0.109      1.723
REMARK SMILES O=C(O)CCc1ccccc1
REMARK SMILES IDX 4 1 2 2 1 3 3 4 5 6 6 7 7 8 11 9 8 10 10 11 9 12
REMARK H PARENT 3 5
REMARK Flexibility Score: inf
ROOT
ATOM      1  C   UNL     1       8.438  -0.656  -2.151  1.00  0.00     0.127 C 
ENDROOT
BRANCH   1   2
ATOM      2  C   UNL     1       8.427  -1.920  -2.908  1.00  0.00     0.303 C 
ATOM      3  O   UNL     1       7.321  -2.427  -3.239  1.00  0.00    -0.252 OA
BRANCH   2   4
ATOM      4  O   UNL     1       9.608  -2.581  -3.277  1.00  0.00    -0.481 OA
ATOM      5  H   UNL     1      10.203  -2.950  -2.548  1.00  0.00     0.296 HD
ENDBRANCH   2   4
ENDBRANCH   1   2
BRANCH   1   6
ATOM      6  C   UNL     1       7.062  -0.019  -2.079  1.00  0.00     0.047 C 
BRANCH   6   7
ATOM      7  C   UNL     1       6.533  -0.048  -0.691  1.00  0.00    -0.047 A 
ATOM      8  C   UNL     1       5.886   1.057  -0.156  1.00  0.00     0.004 A 
ATOM      9  C   UNL     1       6.660  -1.150   0.135  1.00  0.00     0.004 A 
ATOM     10  C   UNL     1       5.394   1.065   1.129  1.00  0.00     0.000 A 
ATOM     11  C   UNL     1       6.167  -1.140   1.422  1.00  0.00     0.000 A 
ATOM     12  C   UNL     1       5.527  -0.040   1.946  1.00  0.00     0.000 A 
ENDBRANCH   6   7
ENDBRANCH   1   6
TORSDOF 4
ENDMDL
MODEL 3
REMARK VINA RESULT:      -6.3      2.606      3.939
REMARK SMILES O=C(O)CCc1ccccc1
REMARK SMILES IDX 4 1 2 2 1 3 3 4 5 6 6 7 7 8 11 9 8 10 10 11 9 12
REMARK H PARENT 3 5
REMARK Flexibility Score: inf
ROOT
ATOM      1  C   UNL     1       8.408  -1.565   2.574  1.00  0.00     0.127 C 
ENDROOT
BRANCH   1   2
ATOM      2  C   UNL     1       9.532  -2.358   2.044  1.00  0.00     0.303 C 
ATOM      3  O   UNL     1       9.285  -3.368   1.330  1.00  0.00    -0.252 OA
BRANCH   2   4
ATOM      4  O   UNL     1      10.869  -2.026   2.304  1.00  0.00    -0.481 OA
ATOM      5  H   UNL     1      11.075  -1.116   2.693  1.00  0.00     0.296 HD
ENDBRANCH   2   4
ENDBRANCH   1   2
BRANCH   1   6
ATOM      6  C   UNL     1       7.094  -1.906   1.895  1.00  0.00     0.047 C 
BRANCH   6   7
ATOM      7  C   UNL     1       6.627  -0.781   1.043  1.00  0.00    -0.047 A 
ATOM      8  C   UNL     1       5.820   0.217   1.569  1.00  0.00     0.004 A 
ATOM      9  C   UNL     1       6.954  -0.671  -0.296  1.00  0.00     0.004 A 
ATOM     10  C   UNL     1       5.363   1.266   0.804  1.00  0.00     0.000 A 
ATOM     11  C   UNL     1       6.495   0.380  -1.061  1.00  0.00     0.000 A 
ATOM     12  C   UNL     1       5.694   1.366  -0.532  1.00  0.00     0.000 A 
ENDBRANCH   6   7
ENDBRANCH   1   6
TORSDOF 4
ENDMDL
MODEL 4
REMARK VINA RESULT:      -6.3      2.964      4.827
REMARK SMILES O=C(O)CCc1ccccc1
REMARK SMILES IDX 4 1 2 2 1 3 3 4 5 6 6 7 7 8 11 9 8 10 10 11 9 12
REMARK H PARENT 3 5
REMARK Flexibility Score: inf
ROOT
ATOM      1  C   UNL     1       6.062   1.278   1.278  1.00  0.00     0.127 C 
ENDROOT
BRANCH   1   2
ATOM      2  C   UNL     1       5.267   0.231   1.943  1.00  0.00     0.303 C 
ATOM      3  O   UNL     1       4.194   0.552   2.522  1.00  0.00    -0.252 OA
BRANCH   2   4
ATOM      4  O   UNL     1       5.661  -1.115   1.954  1.00  0.00    -0.481 OA
ATOM      5  H   UNL     1       5.118  -1.774   2.495  1.00  0.00     0.296 HD
ENDBRANCH   2   4
ENDBRANCH   1   2
BRANCH   1   6
ATOM      6  C   UNL     1       5.807   1.329  -0.218  1.00  0.00     0.047 C 
BRANCH   6   7
ATOM      7  C   UNL     1       6.876   0.617  -0.965  1.00  0.00    -0.047 A 
ATOM      8  C   UNL     1       8.198   1.027  -0.872  1.00  0.00     0.004 A 
ATOM      9  C   UNL     1       6.621  -0.466  -1.786  1.00  0.00     0.004 A 
ATOM     10  C   UNL     1       9.209   0.396  -1.560  1.00  0.00     0.000 A 
ATOM     11  C   UNL     1       7.635  -1.098  -2.474  1.00  0.00     0.000 A 
ATOM     12  C   UNL     1       8.944  -0.684  -2.378  1.00  0.00     0.000 A 
ENDBRANCH   6   7
ENDBRANCH   1   6
TORSDOF 4
ENDMDL
MODEL 5
REMARK VINA RESULT:      -6.2      2.974      4.766
REMARK SMILES O=C(O)CCc1ccccc1
REMARK SMILES IDX 4 1 2 2 1 3 3 4 5 6 6 7 7 8 11 9 8 10 10 11 9 12
REMARK H PARENT 3 5
REMARK Flexibility Score: inf
ROOT
ATOM      1  C   UNL     1       6.072   1.320   1.330  1.00  0.00     0.127 C 
ENDROOT
BRANCH   1   2
ATOM      2  C   UNL     1       5.279   0.255   1.970  1.00  0.00     0.303 C 
ATOM      3  O   UNL     1       4.184   0.554   2.520  1.00  0.00    -0.252 OA
BRANCH   2   4
ATOM      4  O   UNL     1       5.699  -1.083   1.988  1.00  0.00    -0.481 OA
ATOM      5  H   UNL     1       6.342  -1.397   1.274  1.00  0.00     0.296 HD
ENDBRANCH   2   4
ENDBRANCH   1   2
BRANCH   1   6
ATOM      6  C   UNL     1       5.824   1.400  -0.166  1.00  0.00     0.047 C 
BRANCH   6   7
ATOM      7  C   UNL     1       6.901   0.708  -0.922  1.00  0.00    -0.047 A 
ATOM      8  C   UNL     1       6.602  -0.341  -1.779  1.00  0.00     0.004 A 
ATOM      9  C   UNL     1       8.235   1.056  -0.811  1.00  0.00     0.004 A 
ATOM     10  C   UNL     1       7.577  -1.008  -2.485  1.00  0.00     0.000 A 
ATOM     11  C   UNL     1       9.210   0.387  -1.519  1.00  0.00     0.000 A 
ATOM     12  C   UNL     1       8.906  -0.654  -2.366  1.00  0.00     0.000 A 
ENDBRANCH   6   7
ENDBRANCH   1   6
TORSDOF 4
ENDMDL
