@<TRIPOS>MOLECULE
/home/cewinharhar/GITHUB/reincatalyze/data/processed/docking_pred/2023-Apr-25-2248_maxeplen10_maxtrainstep1000_exh16_gamma099_lrac3e-4_lrcr1e-3/4f8485ffa73320ccf1b94cd7b1ea99ef776c762b_ligand_2.pdbqt
 12 12 0 0 0
SMALL
GASTEIGER

@<TRIPOS>ATOM
      1  C          6.0720    1.3200    1.3300 C.3     1  UNL1        0.1270
      2  C          5.2790    0.2550    1.9700 C.2     1  UNL1        0.3030
      3  O          4.1840    0.5540    2.5200 O.2     1  UNL1       -0.2520
      4  O          5.6990   -1.0830    1.9880 O.3     1  UNL1       -0.4810
      5  H          6.3420   -1.3970    1.2740 H       1  UNL1        0.2960
      6  C          5.8240    1.4000   -0.1660 C.3     1  UNL1        0.0470
      7  C          6.9010    0.7080   -0.9220 C.2     1  UNL1       -0.0470
      8  C          6.6020   -0.3410   -1.7790 C.2     1  UNL1        0.0040
      9  C          8.2350    1.0560   -0.8110 C.2     1  UNL1        0.0040
     10  C          7.5770   -1.0080   -2.4850 C.2     1  UNL1        0.0000
     11  C          9.2100    0.3870   -1.5190 C.2     1  UNL1        0.0000
     12  C          8.9060   -0.6540   -2.3660 C.2     1  UNL1        0.0000
@<TRIPOS>BOND
     1    10    12    2
     2    10     8    1
     3    12    11    1
     4     8     7    2
     5    11     9    2
     6     7     9    1
     7     7     6    1
     8     6     1    1
     9     5     4    1
    10     1     2    1
    11     2     4    1
    12     2     3    2
