@<TRIPOS>MOLECULE
/home/cewinharhar/GITHUB/reincatalyze/data/processed/docking_pred/2023-Apr-25-2248_maxeplen10_maxtrainstep1000_exh16_gamma099_lrac3e-4_lrcr1e-3/4f8485ffa73320ccf1b94cd7b1ea99ef776c762b_ligand_2.pdbqt
 12 12 0 0 0
SMALL
GASTEIGER

@<TRIPOS>ATOM
      1  C          6.0620    1.2780    1.2780 C.3     1  UNL1        0.1270
      2  C          5.2670    0.2310    1.9430 C.2     1  UNL1        0.3030
      3  O          4.1940    0.5520    2.5220 O.2     1  UNL1       -0.2520
      4  O          5.6610   -1.1150    1.9540 O.3     1  UNL1       -0.4810
      5  H          5.1180   -1.7740    2.4950 H       1  UNL1        0.2960
      6  C          5.8070    1.3290   -0.2180 C.3     1  UNL1        0.0470
      7  C          6.8760    0.6170   -0.9650 C.2     1  UNL1       -0.0470
      8  C          8.1980    1.0270   -0.8720 C.2     1  UNL1        0.0040
      9  C          6.6210   -0.4660   -1.7860 C.2     1  UNL1        0.0040
     10  C          9.2090    0.3960   -1.5600 C.2     1  UNL1        0.0000
     11  C          7.6350   -1.0980   -2.4740 C.2     1  UNL1        0.0000
     12  C          8.9440   -0.6840   -2.3780 C.2     1  UNL1        0.0000
@<TRIPOS>BOND
     1    11    12    2
     2    11     9    1
     3    12    10    1
     4     9     7    2
     5    10     8    2
     6     7     8    1
     7     7     6    1
     8     6     1    1
     9     1     2    1
    10     2     4    1
    11     2     3    2
    12     4     5    1
