@<TRIPOS>MOLECULE
/home/cewinharhar/GITHUB/reincatalyze/data/processed/docking_pred/2023-Apr-25-2248_maxeplen10_maxtrainstep1000_exh16_gamma099_lrac3e-4_lrcr1e-3/4f8485ffa73320ccf1b94cd7b1ea99ef776c762b_ligand_2.pdbqt
 12 12 0 0 0
SMALL
GASTEIGER

@<TRIPOS>ATOM
      1  C          8.4380   -0.6560   -2.1510 C.3     1  UNL1        0.1270
      2  C          8.4270   -1.9200   -2.9080 C.2     1  UNL1        0.3030
      3  O          7.3210   -2.4270   -3.2390 O.2     1  UNL1       -0.2520
      4  O          9.6080   -2.5810   -3.2770 O.3     1  UNL1       -0.4810
      5  H         10.2030   -2.9500   -2.5480 H       1  UNL1        0.2960
      6  C          7.0620   -0.0190   -2.0790 C.3     1  UNL1        0.0470
      7  C          6.5330   -0.0480   -0.6910 C.2     1  UNL1       -0.0470
      8  C          5.8860    1.0570   -0.1560 C.2     1  UNL1        0.0040
      9  C          6.6600   -1.1500    0.1350 C.2     1  UNL1        0.0040
     10  C          5.3940    1.0650    1.1290 C.2     1  UNL1        0.0000
     11  C          6.1670   -1.1400    1.4220 C.2     1  UNL1        0.0000
     12  C          5.5270   -0.0400    1.9460 C.2     1  UNL1        0.0000
@<TRIPOS>BOND
     1     4     2    1
     2     4     5    1
     3     3     2    2
     4     2     1    1
     5     1     6    1
     6     6     7    1
     7     7     8    2
     8     7     9    1
     9     8    10    1
    10     9    11    2
    11    10    12    2
    12    11    12    1
