@<TRIPOS>MOLECULE
/home/cewinharhar/GITHUB/reincatalyze/data/processed/docking_pred/2023-Apr-25-2248_maxeplen10_maxtrainstep1000_exh16_gamma099_lrac3e-4_lrcr1e-3/4f8485ffa73320ccf1b94cd7b1ea99ef776c762b_ligand_2.pdbqt
 12 12 0 0 0
SMALL
GASTEIGER

@<TRIPOS>ATOM
      1  C          8.4310   -0.5880   -2.2010 C.3     1  UNL1        0.1270
      2  C          8.4540   -1.8690   -2.9280 C.2     1  UNL1        0.3030
      3  O          9.5570   -2.4550   -3.1030 O.2     1  UNL1       -0.2520
      4  O          7.2880   -2.4640   -3.4330 O.3     1  UNL1       -0.4810
      5  H          6.7470   -1.9590   -4.1220 H       1  UNL1        0.2960
      6  C          7.0350    0.0020   -2.1210 C.3     1  UNL1        0.0470
      7  C          6.5290   -0.0150   -0.7240 C.2     1  UNL1       -0.0470
      8  C          6.6630   -1.1490    0.0640 C.2     1  UNL1        0.0040
      9  C          5.9000    1.0710   -0.1430 C.2     1  UNL1        0.0040
     10  C          6.1960   -1.2000    1.3570 C.2     1  UNL1        0.0000
     11  C          5.4330    1.0190    1.1530 C.2     1  UNL1        0.0000
     12  C          5.5680   -0.1110    1.9280 C.2     1  UNL1        0.0000
@<TRIPOS>BOND
     1     5     4    1
     2     4     2    1
     3     3     2    2
     4     2     1    1
     5     1     6    1
     6     6     7    1
     7     7     9    2
     8     7     8    1
     9     9    11    1
    10     8    10    2
    11    11    12    2
    12    10    12    1
