@<TRIPOS>MOLECULE
/home/cewinharhar/GITHUB/reincatalyze/data/processed/docking_pred/2023-Apr-25-2248_maxeplen10_maxtrainstep1000_exh16_gamma099_lrac3e-4_lrcr1e-3/4fd116288ae20ad94bf91d23a53b6bc9c92e4cae_ligand_2.pdbqt
 12 12 0 0 0
SMALL
GASTEIGER

@<TRIPOS>ATOM
      1  C          8.4720    0.5840   -1.7330 C.3     1  UNL1        0.1270
      2  C          9.6280    0.2780   -0.8720 C.2     1  UNL1        0.3030
      3  O          9.4760   -0.5110    0.1000 O.2     1  UNL1       -0.2520
      4  O         10.8950    0.8350   -1.0960 O.3     1  UNL1       -0.4810
      5  H         11.0570    1.7940   -0.8220 H       1  UNL1        0.2960
      6  C          7.2880   -0.3230   -1.4490 C.3     1  UNL1        0.0470
      7  C          6.4130    0.2570   -0.3980 C.2     1  UNL1       -0.0470
      8  C          5.7980    1.4860   -0.5880 C.2     1  UNL1        0.0040
      9  C          6.1720   -0.3750    0.8090 C.2     1  UNL1        0.0040
     10  C          4.9900    2.0550    0.3700 C.2     1  UNL1        0.0000
     11  C          5.3620    0.1960    1.7670 C.2     1  UNL1        0.0000
     12  C          4.7570    1.4160    1.5720 C.2     1  UNL1        0.0000
@<TRIPOS>BOND
     1     1     6    1
     2     1     2    1
     3     6     7    1
     4     4     2    1
     5     4     5    1
     6     2     3    2
     7     8     7    2
     8     8    10    1
     9     7     9    1
    10    10    12    2
    11     9    11    2
    12    12    11    1
