@<TRIPOS>MOLECULE
/home/cewinharhar/GITHUB/reincatalyze/data/processed/docking_pred/2023-Apr-25-2248_maxeplen10_maxtrainstep1000_exh16_gamma099_lrac3e-4_lrcr1e-3/4fd116288ae20ad94bf91d23a53b6bc9c92e4cae_ligand_2.pdbqt
 12 12 0 0 0
SMALL
GASTEIGER

@<TRIPOS>ATOM
      1  C          5.0260    1.7510    0.7040 C.3     1  UNL1        0.1270
      2  C          4.4920    1.1070    1.9180 C.2     1  UNL1        0.3030
      3  O          5.1760    0.2140    2.4880 O.2     1  UNL1       -0.2520
      4  O          3.2480    1.4550    2.4640 O.3     1  UNL1       -0.4810
      5  H          3.2030    2.2340    3.1060 H       1  UNL1        0.2960
      6  C          6.5380    1.8810    0.7410 C.3     1  UNL1        0.0470
      7  C          7.1670    1.0880   -0.3470 C.2     1  UNL1       -0.0470
      8  C          6.4150    0.1980   -1.1000 C.2     1  UNL1        0.0040
      9  C          8.5110    1.1800   -0.6590 C.2     1  UNL1        0.0040
     10  C          6.9700   -0.5590   -2.1070 C.2     1  UNL1        0.0000
     11  C          9.0650    0.4220   -1.6680 C.2     1  UNL1        0.0000
     12  C          8.3130   -0.4600   -2.4100 C.2     1  UNL1        0.0000
@<TRIPOS>BOND
     1    12    10    2
     2    12    11    1
     3    10     8    1
     4    11     9    2
     5     8     7    2
     6     9     7    1
     7     7     6    1
     8     1     6    1
     9     1     2    1
    10     2     4    1
    11     2     3    2
    12     4     5    1
