@<TRIPOS>MOLECULE
/home/cewinharhar/GITHUB/reincatalyze/data/processed/docking_pred/2023-Apr-25-2248_maxeplen10_maxtrainstep1000_exh16_gamma099_lrac3e-4_lrcr1e-3/4fd116288ae20ad94bf91d23a53b6bc9c92e4cae_ligand_2.pdbqt
 12 12 0 0 0
SMALL
GASTEIGER

@<TRIPOS>ATOM
      1  C          8.4210   -0.6570   -2.1290 C.3     1  UNL1        0.1270
      2  C          8.4410   -1.9140   -2.8970 C.2     1  UNL1        0.3030
      3  O          9.5400   -2.5060   -3.0750 O.2     1  UNL1       -0.2520
      4  O          7.2760   -2.4790   -3.4380 O.3     1  UNL1       -0.4810
      5  H          7.0290   -3.4230   -3.1740 H       1  UNL1        0.2960
      6  C          7.0550    0.0060   -2.1490 C.3     1  UNL1        0.0470
      7  C          6.4950    0.1130   -0.7760 C.2     1  UNL1       -0.0470
      8  C          6.6260   -0.9340    0.1250 C.2     1  UNL1        0.0040
      9  C          5.8170    1.2320   -0.3300 C.2     1  UNL1        0.0040
     10  C          6.1100   -0.8700    1.3990 C.2     1  UNL1        0.0000
     11  C          5.3000    1.2950    0.9470 C.2     1  UNL1        0.0000
     12  C          5.4340    0.2520    1.8350 C.2     1  UNL1        0.0000
@<TRIPOS>BOND
     1     4     5    1
     2     4     2    1
     3     3     2    2
     4     2     1    1
     5     6     1    1
     6     6     7    1
     7     7     9    2
     8     7     8    1
     9     9    11    1
    10     8    10    2
    11    11    12    2
    12    10    12    1
