MODEL 1
REMARK VINA RESULT:      -7.3      0.000      0.000
REMARK SMILES O=C(O)CCc1ccccc1
REMARK SMILES IDX 4 1 2 2 1 3 3 4 5 6 6 7 7 8 11 9 8 10 10 11 9 12
REMARK H PARENT 3 5
REMARK Flexibility Score: inf
ROOT
ATOM      1  C   UNL     1       8.421  -0.657  -2.129  1.00  0.00     0.127 C 
ENDROOT
BRANCH   1   2
ATOM      2  C   UNL     1       8.441  -1.914  -2.897  1.00  0.00     0.303 C 
ATOM      3  O   UNL     1       9.540  -2.506  -3.075  1.00  0.00    -0.252 OA
BRANCH   2   4
ATOM      4  O   UNL     1       7.276  -2.479  -3.438  1.00  0.00    -0.481 OA
ATOM      5  H   UNL     1       7.029  -3.423  -3.174  1.00  0.00     0.296 HD
ENDBRANCH   2   4
ENDBRANCH   1   2
BRANCH   1   6
ATOM      6  C   UNL     1       7.055   0.006  -2.149  1.00  0.00     0.047 C 
BRANCH   6   7
ATOM      7  C   UNL     1       6.495   0.113  -0.776  1.00  0.00    -0.047 A 
ATOM      8  C   UNL     1       6.626  -0.934   0.125  1.00  0.00     0.004 A 
ATOM      9  C   UNL     1       5.817   1.232  -0.330  1.00  0.00     0.004 A 
ATOM     10  C   UNL     1       6.110  -0.870   1.399  1.00  0.00     0.000 A 
ATOM     11  C   UNL     1       5.300   1.295   0.947  1.00  0.00     0.000 A 
ATOM     12  C   UNL     1       5.434   0.252   1.835  1.00  0.00     0.000 A 
ENDBRANCH   6   7
ENDBRANCH   1   6
TORSDOF 4
ENDMDL
MODEL 2
REMARK VINA RESULT:      -7.2      0.112      1.723
REMARK SMILES O=C(O)CCc1ccccc1
REMARK SMILES IDX 4 1 2 2 1 3 3 4 5 6 6 7 7 8 11 9 8 10 10 11 9 12
REMARK H PARENT 3 5
REMARK Flexibility Score: inf
ROOT
ATOM      1  C   UNL     1       8.431  -0.662  -2.091  1.00  0.00     0.127 C 
ENDROOT
BRANCH   1   2
ATOM      2  C   UNL     1       8.416  -1.910  -2.875  1.00  0.00     0.303 C 
ATOM      3  O   UNL     1       7.307  -2.412  -3.205  1.00  0.00    -0.252 OA
BRANCH   2   4
ATOM      4  O   UNL     1       9.595  -2.559  -3.269  1.00  0.00    -0.481 OA
ATOM      5  H   UNL     1       9.919  -3.345  -2.723  1.00  0.00     0.296 HD
ENDBRANCH   2   4
ENDBRANCH   1   2
BRANCH   1   6
ATOM      6  C   UNL     1       7.089   0.048  -2.117  1.00  0.00     0.047 C 
BRANCH   6   7
ATOM      7  C   UNL     1       6.499   0.123  -0.754  1.00  0.00    -0.047 A 
ATOM      8  C   UNL     1       5.811   1.255  -0.343  1.00  0.00     0.004 A 
ATOM      9  C   UNL     1       6.608  -0.903   0.166  1.00  0.00     0.004 A 
ATOM     10  C   UNL     1       5.263   1.360   0.915  1.00  0.00     0.000 A 
ATOM     11  C   UNL     1       6.059  -0.797   1.426  1.00  0.00     0.000 A 
ATOM     12  C   UNL     1       5.378   0.330   1.827  1.00  0.00     0.000 A 
ENDBRANCH   6   7
ENDBRANCH   1   6
TORSDOF 4
ENDMDL
MODEL 3
REMARK VINA RESULT:      -6.8      3.389      5.071
REMARK SMILES O=C(O)CCc1ccccc1
REMARK SMILES IDX 4 1 2 2 1 3 3 4 5 6 6 7 7 8 11 9 8 10 10 11 9 12
REMARK H PARENT 3 5
REMARK Flexibility Score: inf
ROOT
ATOM      1  C   UNL     1       5.026   1.751   0.704  1.00  0.00     0.127 C 
ENDROOT
BRANCH   1   2
ATOM      2  C   UNL     1       4.492   1.107   1.918  1.00  0.00     0.303 C 
ATOM      3  O   UNL     1       5.176   0.214   2.488  1.00  0.00    -0.252 OA
BRANCH   2   4
ATOM      4  O   UNL     1       3.248   1.455   2.464  1.00  0.00    -0.481 OA
ATOM      5  H   UNL     1       3.203   2.234   3.106  1.00  0.00     0.296 HD
ENDBRANCH   2   4
ENDBRANCH   1   2
BRANCH   1   6
ATOM      6  C   UNL     1       6.538   1.881   0.741  1.00  0.00     0.047 C 
BRANCH   6   7
ATOM      7  C   UNL     1       7.167   1.088  -0.347  1.00  0.00    -0.047 A 
ATOM      8  C   UNL     1       6.415   0.198  -1.100  1.00  0.00     0.004 A 
ATOM      9  C   UNL     1       8.511   1.180  -0.659  1.00  0.00     0.004 A 
ATOM     10  C   UNL     1       6.970  -0.559  -2.107  1.00  0.00     0.000 A 
ATOM     11  C   UNL     1       9.065   0.422  -1.668  1.00  0.00     0.000 A 
ATOM     12  C   UNL     1       8.313  -0.460  -2.410  1.00  0.00     0.000 A 
ENDBRANCH   6   7
ENDBRANCH   1   6
TORSDOF 4
ENDMDL
MODEL 4
REMARK VINA RESULT:      -6.6      2.049      2.733
REMARK SMILES O=C(O)CCc1ccccc1
REMARK SMILES IDX 4 1 2 2 1 3 3 4 5 6 6 7 7 8 11 9 8 10 10 11 9 12
REMARK H PARENT 3 5
REMARK Flexibility Score: inf
ROOT
ATOM      1  C   UNL     1       8.472   0.584  -1.733  1.00  0.00     0.127 C 
ENDROOT
BRANCH   1   2
ATOM      2  C   UNL     1       9.628   0.278  -0.872  1.00  0.00     0.303 C 
ATOM      3  O   UNL     1       9.476  -0.511   0.100  1.00  0.00    -0.252 OA
BRANCH   2   4
ATOM      4  O   UNL     1      10.895   0.835  -1.096  1.00  0.00    -0.481 OA
ATOM      5  H   UNL     1      11.057   1.794  -0.822  1.00  0.00     0.296 HD
ENDBRANCH   2   4
ENDBRANCH   1   2
BRANCH   1   6
ATOM      6  C   UNL     1       7.288  -0.323  -1.449  1.00  0.00     0.047 C 
BRANCH   6   7
ATOM      7  C   UNL     1       6.413   0.257  -0.398  1.00  0.00    -0.047 A 
ATOM      8  C   UNL     1       5.798   1.486  -0.588  1.00  0.00     0.004 A 
ATOM      9  C   UNL     1       6.172  -0.375   0.809  1.00  0.00     0.004 A 
ATOM     10  C   UNL     1       4.990   2.055   0.370  1.00  0.00     0.000 A 
ATOM     11  C   UNL     1       5.362   0.196   1.767  1.00  0.00     0.000 A 
ATOM     12  C   UNL     1       4.757   1.416   1.572  1.00  0.00     0.000 A 
ENDBRANCH   6   7
ENDBRANCH   1   6
TORSDOF 4
ENDMDL
MODEL 5
REMARK VINA RESULT:      -6.5      1.972      2.911
REMARK SMILES O=C(O)CCc1ccccc1
REMARK SMILES IDX 4 1 2 2 1 3 3 4 5 6 6 7 7 8 11 9 8 10 10 11 9 12
REMARK H PARENT 3 5
REMARK Flexibility Score: inf
ROOT
ATOM      1  C   UNL     1       8.335  -1.754   1.174  1.00  0.00     0.127 C 
ENDROOT
BRANCH   1   2
ATOM      2  C   UNL     1       8.715  -2.988   0.464  1.00  0.00     0.303 C 
ATOM      3  O   UNL     1       9.459  -3.824   1.045  1.00  0.00    -0.252 OA
BRANCH   2   4
ATOM      4  O   UNL     1       8.275  -3.268  -0.837  1.00  0.00    -0.481 OA
ATOM      5  H   UNL     1       7.764  -2.553  -1.339  1.00  0.00     0.296 HD
ENDBRANCH   2   4
ENDBRANCH   1   2
BRANCH   1   6
ATOM      6  C   UNL     1       6.841  -1.676   1.432  1.00  0.00     0.047 C 
BRANCH   6   7
ATOM      7  C   UNL     1       6.272  -0.414   0.892  1.00  0.00    -0.047 A 
ATOM      8  C   UNL     1       6.537  -0.019  -0.412  1.00  0.00     0.004 A 
ATOM      9  C   UNL     1       5.471   0.427   1.642  1.00  0.00     0.004 A 
ATOM     10  C   UNL     1       6.034   1.148  -0.938  1.00  0.00     0.000 A 
ATOM     11  C   UNL     1       4.968   1.596   1.113  1.00  0.00     0.000 A 
ATOM     12  C   UNL     1       5.236   1.982  -0.180  1.00  0.00     0.000 A 
ENDBRANCH   6   7
ENDBRANCH   1   6
TORSDOF 4
ENDMDL
