@<TRIPOS>MOLECULE
/home/cewinharhar/GITHUB/reincatalyze/data/processed/docking_pred/2023-Apr-25-2248_maxeplen10_maxtrainstep1000_exh16_gamma099_lrac3e-4_lrcr1e-3/4fd116288ae20ad94bf91d23a53b6bc9c92e4cae_ligand_2.pdbqt
 12 12 0 0 0
SMALL
GASTEIGER

@<TRIPOS>ATOM
      1  C          8.4310   -0.6620   -2.0910 C.3     1  UNL1        0.1270
      2  C          8.4160   -1.9100   -2.8750 C.2     1  UNL1        0.3030
      3  O          7.3070   -2.4120   -3.2050 O.2     1  UNL1       -0.2520
      4  O          9.5950   -2.5590   -3.2690 O.3     1  UNL1       -0.4810
      5  H          9.9190   -3.3450   -2.7230 H       1  UNL1        0.2960
      6  C          7.0890    0.0480   -2.1170 C.3     1  UNL1        0.0470
      7  C          6.4990    0.1230   -0.7540 C.2     1  UNL1       -0.0470
      8  C          5.8110    1.2550   -0.3430 C.2     1  UNL1        0.0040
      9  C          6.6080   -0.9030    0.1660 C.2     1  UNL1        0.0040
     10  C          5.2630    1.3600    0.9150 C.2     1  UNL1        0.0000
     11  C          6.0590   -0.7970    1.4260 C.2     1  UNL1        0.0000
     12  C          5.3780    0.3300    1.8270 C.2     1  UNL1        0.0000
@<TRIPOS>BOND
     1     4     2    1
     2     4     5    1
     3     3     2    2
     4     2     1    1
     5     6     1    1
     6     6     7    1
     7     7     8    2
     8     7     9    1
     9     8    10    1
    10     9    11    2
    11    10    12    2
    12    11    12    1
