@<TRIPOS>MOLECULE
/home/cewinharhar/GITHUB/reincatalyze/data/processed/docking_pred/2023-Apr-25-2248_maxeplen10_maxtrainstep1000_exh16_gamma099_lrac3e-4_lrcr1e-3/4fd116288ae20ad94bf91d23a53b6bc9c92e4cae_ligand_2.pdbqt
 12 12 0 0 0
SMALL
GASTEIGER

@<TRIPOS>ATOM
      1  C          8.3350   -1.7540    1.1740 C.3     1  UNL1        0.1270
      2  C          8.7150   -2.9880    0.4640 C.2     1  UNL1        0.3030
      3  O          9.4590   -3.8240    1.0450 O.2     1  UNL1       -0.2520
      4  O          8.2750   -3.2680   -0.8370 O.3     1  UNL1       -0.4810
      5  H          7.7640   -2.5530   -1.3390 H       1  UNL1        0.2960
      6  C          6.8410   -1.6760    1.4320 C.3     1  UNL1        0.0470
      7  C          6.2720   -0.4140    0.8920 C.2     1  UNL1       -0.0470
      8  C          6.5370   -0.0190   -0.4120 C.2     1  UNL1        0.0040
      9  C          5.4710    0.4270    1.6420 C.2     1  UNL1        0.0040
     10  C          6.0340    1.1480   -0.9380 C.2     1  UNL1        0.0000
     11  C          4.9680    1.5960    1.1130 C.2     1  UNL1        0.0000
     12  C          5.2360    1.9820   -0.1800 C.2     1  UNL1        0.0000
@<TRIPOS>BOND
     1     5     4    1
     2    10     8    1
     3    10    12    2
     4     4     2    1
     5     8     7    2
     6    12    11    1
     7     2     3    2
     8     2     1    1
     9     7     6    1
    10     7     9    1
    11    11     9    2
    12     1     6    1
