@<TRIPOS>MOLECULE
/home/cewinharhar/GITHUB/reincatalyze/data/processed/docking_pred/2023-Apr-25-2248_maxeplen10_maxtrainstep1000_exh16_gamma099_lrac3e-4_lrcr1e-3/5131ba4422f83928eab452067adeb3f7f7723c60_ligand_2.pdbqt
 12 12 0 0 0
SMALL
GASTEIGER

@<TRIPOS>ATOM
      1  C          6.0210   -0.7490    1.7950 C.3     1  UNL1        0.1270
      2  C          5.3470    0.5470    1.9870 C.2     1  UNL1        0.3030
      3  O          4.1720    0.5640    2.4440 O.2     1  UNL1       -0.2520
      4  O          5.9680    1.7670    1.6810 O.3     1  UNL1       -0.4810
      5  H          6.7460    2.0690    2.2510 H       1  UNL1        0.2960
      6  C          7.4950   -0.5860    1.4700 C.3     1  UNL1        0.0470
      7  C          7.7080   -0.4730    0.0040 C.2     1  UNL1       -0.0470
      8  C          8.6820    0.3740   -0.5070 C.2     1  UNL1        0.0040
      9  C          6.9590   -1.1800   -0.9180 C.2     1  UNL1        0.0040
     10  C          8.8970    0.5090   -1.8590 C.2     1  UNL1        0.0000
     11  C          7.1750   -1.0440   -2.2730 C.2     1  UNL1        0.0000
     12  C          8.1430   -0.2010   -2.7710 C.2     1  UNL1        0.0000
@<TRIPOS>BOND
     1    12    11    2
     2    12    10    1
     3    11     9    1
     4    10     8    2
     5     9     7    2
     6     8     7    1
     7     7     6    1
     8     6     1    1
     9     4     2    1
    10     4     5    1
    11     1     2    1
    12     2     3    2
