@<TRIPOS>MOLECULE
/home/cewinharhar/GITHUB/reincatalyze/data/processed/docking_pred/2023-Apr-25-2248_maxeplen10_maxtrainstep1000_exh16_gamma099_lrac3e-4_lrcr1e-3/5131ba4422f83928eab452067adeb3f7f7723c60_ligand_2.pdbqt
 12 12 0 0 0
SMALL
GASTEIGER

@<TRIPOS>ATOM
      1  C          8.4330   -0.6070   -2.2290 C.3     1  UNL1        0.1270
      2  C          8.4450   -1.8950   -2.9440 C.2     1  UNL1        0.3030
      3  O          9.5400   -2.5040   -3.0900 O.2     1  UNL1       -0.2520
      4  O          7.2790   -2.4700   -3.4680 O.3     1  UNL1       -0.4810
      5  H          6.8870   -2.0820   -4.3150 H       1  UNL1        0.2960
      6  C          7.0320   -0.0400   -2.0910 C.3     1  UNL1        0.0470
      7  C          6.5630   -0.1140   -0.6820 C.2     1  UNL1       -0.0470
      8  C          5.8900    0.9530   -0.1040 C.2     1  UNL1        0.0040
      9  C          6.7760   -1.2200    0.1200 C.2     1  UNL1        0.0040
     10  C          5.4530    0.9190    1.2000 C.2     1  UNL1        0.0000
     11  C          6.3370   -1.2510    1.4260 C.2     1  UNL1        0.0000
     12  C          5.6710   -0.1890    1.9940 C.2     1  UNL1        0.0000
@<TRIPOS>BOND
     1     5     4    1
     2     4     2    1
     3     3     2    2
     4     2     1    1
     5     1     6    1
     6     6     7    1
     7     7     8    2
     8     7     9    1
     9     8    10    1
    10     9    11    2
    11    10    12    2
    12    11    12    1
