@<TRIPOS>MOLECULE
/home/cewinharhar/GITHUB/reincatalyze/data/processed/docking_pred/2023-Apr-25-2248_maxeplen10_maxtrainstep1000_exh16_gamma099_lrac3e-4_lrcr1e-3/5131ba4422f83928eab452067adeb3f7f7723c60_ligand_2.pdbqt
 12 12 0 0 0
SMALL
GASTEIGER

@<TRIPOS>ATOM
      1  C          8.4510   -0.6420   -2.1550 C.3     1  UNL1        0.1270
      2  C          8.4670   -1.9000   -2.9220 C.2     1  UNL1        0.3030
      3  O          9.5660   -2.4880   -3.1110 O.2     1  UNL1       -0.2520
      4  O          7.2990   -2.4690   -3.4500 O.3     1  UNL1       -0.4810
      5  H          7.3320   -2.8670   -4.3790 H       1  UNL1        0.2960
      6  C          7.0570   -0.0510   -2.0510 C.3     1  UNL1        0.0470
      7  C          6.5670   -0.0820   -0.6480 C.2     1  UNL1       -0.0470
      8  C          6.7960   -1.1890    0.1560 C.2     1  UNL1        0.0040
      9  C          5.8630    0.9620   -0.0780 C.2     1  UNL1        0.0040
     10  C          6.3470   -1.2530    1.4550 C.2     1  UNL1        0.0000
     11  C          5.4140    0.8970    1.2240 C.2     1  UNL1        0.0000
     12  C          5.6430   -0.2060    2.0150 C.2     1  UNL1        0.0000
@<TRIPOS>BOND
     1     5     4    1
     2     4     2    1
     3     3     2    2
     4     2     1    1
     5     1     6    1
     6     6     7    1
     7     7     9    2
     8     7     8    1
     9     9    11    1
    10     8    10    2
    11    11    12    2
    12    10    12    1
