@<TRIPOS>MOLECULE
/home/cewinharhar/GITHUB/reincatalyze/data/processed/docking_pred/2023-Apr-25-2248_maxeplen10_maxtrainstep1000_exh16_gamma099_lrac3e-4_lrcr1e-3/5131ba4422f83928eab452067adeb3f7f7723c60_ligand_2.pdbqt
 12 12 0 0 0
SMALL
GASTEIGER

@<TRIPOS>ATOM
      1  C          7.2910   -1.3070   -2.4510 C.3     1  UNL1        0.1270
      2  C          8.7500   -1.4420   -2.6050 C.2     1  UNL1        0.3030
      3  O          9.5030   -0.5550   -2.1180 O.2     1  UNL1       -0.2520
      4  O          9.3340   -2.5270   -3.2750 O.3     1  UNL1       -0.4810
      5  H         10.3420   -2.6100   -3.2750 H       1  UNL1        0.2960
      6  C          6.8940    0.0650   -1.9370 C.3     1  UNL1        0.0470
      7  C          6.4340   -0.0070   -0.5250 C.2     1  UNL1       -0.0470
      8  C          6.6660   -1.1440    0.2370 C.2     1  UNL1        0.0040
      9  C          5.7560    1.0260    0.0950 C.2     1  UNL1        0.0040
     10  C          6.2440   -1.2460    1.5430 C.2     1  UNL1        0.0000
     11  C          5.3340    0.9220    1.4030 C.2     1  UNL1        0.0000
     12  C          5.5670   -0.2090    2.1520 C.2     1  UNL1        0.0000
@<TRIPOS>BOND
     1     4     5    1
     2     4     2    1
     3     2     1    1
     4     2     3    2
     5     1     6    1
     6     6     7    1
     7     7     9    2
     8     7     8    1
     9     9    11    1
    10     8    10    2
    11    11    12    2
    12    10    12    1
