@<TRIPOS>MOLECULE
/home/cewinharhar/GITHUB/reincatalyze/data/processed/docking_pred/2023-Apr-25-2248_maxeplen10_maxtrainstep1000_exh16_gamma099_lrac3e-4_lrcr1e-3/5131ba4422f83928eab452067adeb3f7f7723c60_ligand_2.pdbqt
 12 12 0 0 0
SMALL
GASTEIGER

@<TRIPOS>ATOM
      1  C          6.0360    1.3950    1.1980 C.3     1  UNL1        0.1270
      2  C          5.1800    0.5280    2.0260 C.2     1  UNL1        0.3030
      3  O          5.5950   -0.6200    2.3440 O.2     1  UNL1       -0.2520
      4  O          3.9150    0.9350    2.4770 O.3     1  UNL1       -0.4810
      5  H          3.7770    1.9080    2.7140 H       1  UNL1        0.2960
      6  C          5.7290    1.2600   -0.2820 C.3     1  UNL1        0.0470
      7  C          6.8430    0.5830   -0.9970 C.2     1  UNL1       -0.0470
      8  C          6.6050   -0.5410   -1.7740 C.2     1  UNL1        0.0040
      9  C          8.1540    1.0180   -0.9230 C.2     1  UNL1        0.0040
     10  C          7.6160   -1.1970   -2.4400 C.2     1  UNL1        0.0000
     11  C          9.1650    0.3600   -1.5900 C.2     1  UNL1        0.0000
     12  C          8.9210   -0.7550   -2.3580 C.2     1  UNL1        0.0000
@<TRIPOS>BOND
     1    10    12    2
     2    10     8    1
     3    12    11    1
     4     8     7    2
     5    11     9    2
     6     7     9    1
     7     7     6    1
     8     6     1    1
     9     1     2    1
    10     2     3    2
    11     2     4    1
    12     4     5    1
