@<TRIPOS>MOLECULE
/home/cewinharhar/GITHUB/reincatalyze/data/processed/docking_pred/2023-Apr-25-2248_maxeplen10_maxtrainstep1000_exh16_gamma099_lrac3e-4_lrcr1e-3/51335195432d6c3c52ef841bfe8bb9323d602809_ligand_2.pdbqt
 12 12 0 0 0
SMALL
GASTEIGER

@<TRIPOS>ATOM
      1  C          8.3960   -0.7580   -1.9900 C.3     1  UNL1        0.1270
      2  C          8.3870   -1.9530   -2.8530 C.2     1  UNL1        0.3030
      3  O          7.2820   -2.4090   -3.2560 O.2     1  UNL1       -0.2520
      4  O          9.5670   -2.6020   -3.2440 O.3     1  UNL1       -0.4810
      5  H         10.2970   -2.0560   -3.6810 H       1  UNL1        0.2960
      6  C          7.0870    0.0080   -2.0570 C.3     1  UNL1        0.0470
      7  C          6.4740    0.1340   -0.7100 C.2     1  UNL1       -0.0470
      8  C          5.7630    1.2740   -0.3590 C.2     1  UNL1        0.0040
      9  C          6.5800   -0.8500    0.2560 C.2     1  UNL1        0.0040
     10  C          5.1920    1.4250    0.8830 C.2     1  UNL1        0.0000
     11  C          6.0080   -0.6970    1.5000 C.2     1  UNL1        0.0000
     12  C          5.3050    0.4370    1.8410 C.2     1  UNL1        0.0000
@<TRIPOS>BOND
     1     5     4    1
     2     3     2    2
     3     4     2    1
     4     2     1    1
     5     6     1    1
     6     6     7    1
     7     7     8    2
     8     7     9    1
     9     8    10    1
    10     9    11    2
    11    10    12    2
    12    11    12    1
