@<TRIPOS>MOLECULE
/home/cewinharhar/GITHUB/reincatalyze/data/processed/docking_pred/2023-Apr-25-2248_maxeplen10_maxtrainstep1000_exh16_gamma099_lrac3e-4_lrcr1e-3/51335195432d6c3c52ef841bfe8bb9323d602809_ligand_2.pdbqt
 12 12 0 0 0
SMALL
GASTEIGER

@<TRIPOS>ATOM
      1  C          5.0450    1.7220    0.7360 C.3     1  UNL1        0.1270
      2  C          4.5660    1.0350    1.9480 C.2     1  UNL1        0.3030
      3  O          5.3030    0.1680    2.4920 O.2     1  UNL1       -0.2520
      4  O          3.3170    1.3130    2.5210 O.3     1  UNL1       -0.4810
      5  H          2.7730    2.0780    2.1460 H       1  UNL1        0.2960
      6  C          6.5560    1.8720    0.7200 C.3     1  UNL1        0.0470
      7  C          7.1610    1.0540   -0.3640 C.2     1  UNL1       -0.0470
      8  C          8.5050    1.1850   -0.6830 C.2     1  UNL1        0.0040
      9  C          6.4340    0.1430   -1.1090 C.2     1  UNL1        0.0040
     10  C          9.0920    0.4500   -1.6870 C.2     1  UNL1        0.0000
     11  C          7.0240   -0.5920   -2.1140 C.2     1  UNL1        0.0000
     12  C          8.3580   -0.4560   -2.4260 C.2     1  UNL1        0.0000
@<TRIPOS>BOND
     1    12    11    2
     2    12    10    1
     3    11     9    1
     4    10     8    2
     5     9     7    2
     6     8     7    1
     7     7     6    1
     8     6     1    1
     9     1     2    1
    10     2     3    2
    11     2     4    1
    12     5     4    1
