@<TRIPOS>MOLECULE
/home/cewinharhar/GITHUB/reincatalyze/data/processed/docking_pred/2023-Apr-25-2248_maxeplen10_maxtrainstep1000_exh16_gamma099_lrac3e-4_lrcr1e-3/51335195432d6c3c52ef841bfe8bb9323d602809_ligand_2.pdbqt
 12 12 0 0 0
SMALL
GASTEIGER

@<TRIPOS>ATOM
      1  C          5.7030    3.0280   -0.0250 C.3     1  UNL1        0.1270
      2  C          6.4060    3.9740    0.8590 C.2     1  UNL1        0.3030
      3  O          7.2420    4.7750    0.3580 O.2     1  UNL1       -0.2520
      4  O          6.1770    4.0170    2.2420 O.3     1  UNL1       -0.4810
      5  H          5.7170    4.8300    2.6310 H       1  UNL1        0.2960
      6  C          4.9000    2.0030    0.7550 C.3     1  UNL1        0.0470
      7  C          5.6550    0.7300    0.8970 C.2     1  UNL1       -0.0470
      8  C          6.3310    0.1850   -0.1850 C.2     1  UNL1        0.0040
      9  C          5.7170    0.0260    2.0850 C.2     1  UNL1        0.0040
     10  C          7.0300   -0.9970   -0.0880 C.2     1  UNL1        0.0000
     11  C          6.4180   -1.1580    2.1800 C.2     1  UNL1        0.0000
     12  C          7.0860   -1.6930    1.1020 C.2     1  UNL1        0.0000
@<TRIPOS>BOND
     1     8    10    1
     2     8     7    2
     3    10    12    2
     4     1     6    1
     5     1     2    1
     6     3     2    2
     7     6     7    1
     8     2     4    1
     9     7     9    1
    10    12    11    1
    11     9    11    2
    12     4     5    1
