MODEL 1
REMARK VINA RESULT:      -7.2      0.000      0.000
REMARK SMILES O=C(O)CCc1ccccc1
REMARK SMILES IDX 4 1 2 2 1 3 3 4 5 6 6 7 7 8 11 9 8 10 10 11 9 12
REMARK H PARENT 3 5
REMARK Flexibility Score: inf
ROOT
ATOM      1  C   UNL     1       8.396  -0.758  -1.990  1.00  0.00     0.127 C 
ENDROOT
BRANCH   1   2
ATOM      2  C   UNL     1       8.387  -1.953  -2.853  1.00  0.00     0.303 C 
ATOM      3  O   UNL     1       7.282  -2.409  -3.256  1.00  0.00    -0.252 OA
BRANCH   2   4
ATOM      4  O   UNL     1       9.567  -2.602  -3.244  1.00  0.00    -0.481 OA
ATOM      5  H   UNL     1      10.297  -2.056  -3.681  1.00  0.00     0.296 HD
ENDBRANCH   2   4
ENDBRANCH   1   2
BRANCH   1   6
ATOM      6  C   UNL     1       7.087   0.008  -2.057  1.00  0.00     0.047 C 
BRANCH   6   7
ATOM      7  C   UNL     1       6.474   0.134  -0.710  1.00  0.00    -0.047 A 
ATOM      8  C   UNL     1       5.763   1.274  -0.359  1.00  0.00     0.004 A 
ATOM      9  C   UNL     1       6.580  -0.850   0.256  1.00  0.00     0.004 A 
ATOM     10  C   UNL     1       5.192   1.425   0.883  1.00  0.00     0.000 A 
ATOM     11  C   UNL     1       6.008  -0.697   1.500  1.00  0.00     0.000 A 
ATOM     12  C   UNL     1       5.305   0.437   1.841  1.00  0.00     0.000 A 
ENDBRANCH   6   7
ENDBRANCH   1   6
TORSDOF 4
ENDMDL
MODEL 2
REMARK VINA RESULT:      -7.1      0.118      1.424
REMARK SMILES O=C(O)CCc1ccccc1
REMARK SMILES IDX 4 1 2 2 1 3 3 4 5 6 6 7 7 8 11 9 8 10 10 11 9 12
REMARK H PARENT 3 5
REMARK Flexibility Score: inf
ROOT
ATOM      1  C   UNL     1       8.421  -0.659  -2.102  1.00  0.00     0.127 C 
ENDROOT
BRANCH   1   2
ATOM      2  C   UNL     1       8.414  -1.911  -2.880  1.00  0.00     0.303 C 
ATOM      3  O   UNL     1       7.309  -2.414  -3.220  1.00  0.00    -0.252 OA
BRANCH   2   4
ATOM      4  O   UNL     1       9.597  -2.563  -3.257  1.00  0.00    -0.481 OA
ATOM      5  H   UNL     1       9.956  -2.412  -4.190  1.00  0.00     0.296 HD
ENDBRANCH   2   4
ENDBRANCH   1   2
BRANCH   1   6
ATOM      6  C   UNL     1       7.075   0.043  -2.133  1.00  0.00     0.047 C 
BRANCH   6   7
ATOM      7  C   UNL     1       6.499   0.150  -0.767  1.00  0.00    -0.047 A 
ATOM      8  C   UNL     1       6.611  -0.900   0.133  1.00  0.00     0.004 A 
ATOM      9  C   UNL     1       5.824   1.274  -0.326  1.00  0.00     0.004 A 
ATOM     10  C   UNL     1       6.079  -0.836   1.400  1.00  0.00     0.000 A 
ATOM     11  C   UNL     1       5.292   1.337   0.945  1.00  0.00     0.000 A 
ATOM     12  C   UNL     1       5.406   0.290   1.831  1.00  0.00     0.000 A 
ENDBRANCH   6   7
ENDBRANCH   1   6
TORSDOF 4
ENDMDL
MODEL 3
REMARK VINA RESULT:      -7.1      2.502      3.356
REMARK SMILES O=C(O)CCc1ccccc1
REMARK SMILES IDX 4 1 2 2 1 3 3 4 5 6 6 7 7 8 11 9 8 10 10 11 9 12
REMARK H PARENT 3 5
REMARK Flexibility Score: inf
ROOT
ATOM      1  C   UNL     1       8.130  -2.091   0.825  1.00  0.00     0.127 C 
ENDROOT
BRANCH   1   2
ATOM      2  C   UNL     1       8.427  -3.510   1.093  1.00  0.00     0.303 C 
ATOM      3  O   UNL     1       9.608  -3.927   0.946  1.00  0.00    -0.252 OA
BRANCH   2   4
ATOM      4  O   UNL     1       7.440  -4.415   1.509  1.00  0.00    -0.481 OA
ATOM      5  H   UNL     1       7.384  -5.314   1.049  1.00  0.00     0.296 HD
ENDBRANCH   2   4
ENDBRANCH   1   2
BRANCH   1   6
ATOM      6  C   UNL     1       6.872  -1.625   1.535  1.00  0.00     0.047 C 
BRANCH   6   7
ATOM      7  C   UNL     1       6.334  -0.389   0.908  1.00  0.00    -0.047 A 
ATOM      8  C   UNL     1       5.517   0.472   1.627  1.00  0.00     0.004 A 
ATOM      9  C   UNL     1       6.603  -0.036  -0.402  1.00  0.00     0.004 A 
ATOM     10  C   UNL     1       4.996   1.618   1.073  1.00  0.00     0.000 A 
ATOM     11  C   UNL     1       6.079   1.112  -0.956  1.00  0.00     0.000 A 
ATOM     12  C   UNL     1       5.269   1.960  -0.237  1.00  0.00     0.000 A 
ENDBRANCH   6   7
ENDBRANCH   1   6
TORSDOF 4
ENDMDL
MODEL 4
REMARK VINA RESULT:      -6.7      3.292      5.145
REMARK SMILES O=C(O)CCc1ccccc1
REMARK SMILES IDX 4 1 2 2 1 3 3 4 5 6 6 7 7 8 11 9 8 10 10 11 9 12
REMARK H PARENT 3 5
REMARK Flexibility Score: inf
ROOT
ATOM      1  C   UNL     1       5.045   1.722   0.736  1.00  0.00     0.127 C 
ENDROOT
BRANCH   1   2
ATOM      2  C   UNL     1       4.566   1.035   1.948  1.00  0.00     0.303 C 
ATOM      3  O   UNL     1       5.303   0.168   2.492  1.00  0.00    -0.252 OA
BRANCH   2   4
ATOM      4  O   UNL     1       3.317   1.313   2.521  1.00  0.00    -0.481 OA
ATOM      5  H   UNL     1       2.773   2.078   2.146  1.00  0.00     0.296 HD
ENDBRANCH   2   4
ENDBRANCH   1   2
BRANCH   1   6
ATOM      6  C   UNL     1       6.556   1.872   0.720  1.00  0.00     0.047 C 
BRANCH   6   7
ATOM      7  C   UNL     1       7.161   1.054  -0.364  1.00  0.00    -0.047 A 
ATOM      8  C   UNL     1       8.505   1.185  -0.683  1.00  0.00     0.004 A 
ATOM      9  C   UNL     1       6.434   0.143  -1.109  1.00  0.00     0.004 A 
ATOM     10  C   UNL     1       9.092   0.450  -1.687  1.00  0.00     0.000 A 
ATOM     11  C   UNL     1       7.024  -0.592  -2.114  1.00  0.00     0.000 A 
ATOM     12  C   UNL     1       8.358  -0.456  -2.426  1.00  0.00     0.000 A 
ENDBRANCH   6   7
ENDBRANCH   1   6
TORSDOF 4
ENDMDL
MODEL 5
REMARK VINA RESULT:      -6.5      3.830      4.994
REMARK SMILES O=C(O)CCc1ccccc1
REMARK SMILES IDX 4 1 2 2 1 3 3 4 5 6 6 7 7 8 11 9 8 10 10 11 9 12
REMARK H PARENT 3 5
REMARK Flexibility Score: inf
ROOT
ATOM      1  C   UNL     1       5.703   3.028  -0.025  1.00  0.00     0.127 C 
ENDROOT
BRANCH   1   2
ATOM      2  C   UNL     1       6.406   3.974   0.859  1.00  0.00     0.303 C 
ATOM      3  O   UNL     1       7.242   4.775   0.358  1.00  0.00    -0.252 OA
BRANCH   2   4
ATOM      4  O   UNL     1       6.177   4.017   2.242  1.00  0.00    -0.481 OA
ATOM      5  H   UNL     1       5.717   4.830   2.631  1.00  0.00     0.296 HD
ENDBRANCH   2   4
ENDBRANCH   1   2
BRANCH   1   6
ATOM      6  C   UNL     1       4.900   2.003   0.755  1.00  0.00     0.047 C 
BRANCH   6   7
ATOM      7  C   UNL     1       5.655   0.730   0.897  1.00  0.00    -0.047 A 
ATOM      8  C   UNL     1       6.331   0.185  -0.185  1.00  0.00     0.004 A 
ATOM      9  C   UNL     1       5.717   0.026   2.085  1.00  0.00     0.004 A 
ATOM     10  C   UNL     1       7.030  -0.997  -0.088  1.00  0.00     0.000 A 
ATOM     11  C   UNL     1       6.418  -1.158   2.180  1.00  0.00     0.000 A 
ATOM     12  C   UNL     1       7.086  -1.693   1.102  1.00  0.00     0.000 A 
ENDBRANCH   6   7
ENDBRANCH   1   6
TORSDOF 4
ENDMDL
