@<TRIPOS>MOLECULE
/home/cewinharhar/GITHUB/reincatalyze/data/processed/docking_pred/2023-Apr-25-2248_maxeplen10_maxtrainstep1000_exh16_gamma099_lrac3e-4_lrcr1e-3/51335195432d6c3c52ef841bfe8bb9323d602809_ligand_2.pdbqt
 12 12 0 0 0
SMALL
GASTEIGER

@<TRIPOS>ATOM
      1  C          8.1300   -2.0910    0.8250 C.3     1  UNL1        0.1270
      2  C          8.4270   -3.5100    1.0930 C.2     1  UNL1        0.3030
      3  O          9.6080   -3.9270    0.9460 O.2     1  UNL1       -0.2520
      4  O          7.4400   -4.4150    1.5090 O.3     1  UNL1       -0.4810
      5  H          7.3840   -5.3140    1.0490 H       1  UNL1        0.2960
      6  C          6.8720   -1.6250    1.5350 C.3     1  UNL1        0.0470
      7  C          6.3340   -0.3890    0.9080 C.2     1  UNL1       -0.0470
      8  C          5.5170    0.4720    1.6270 C.2     1  UNL1        0.0040
      9  C          6.6030   -0.0360   -0.4020 C.2     1  UNL1        0.0040
     10  C          4.9960    1.6180    1.0730 C.2     1  UNL1        0.0000
     11  C          6.0790    1.1120   -0.9560 C.2     1  UNL1        0.0000
     12  C          5.2690    1.9600   -0.2370 C.2     1  UNL1        0.0000
@<TRIPOS>BOND
     1    11     9    1
     2    11    12    2
     3     9     7    2
     4    12    10    1
     5     1     2    1
     6     1     6    1
     7     7     6    1
     8     7     8    1
     9     3     2    2
    10     5     4    1
    11    10     8    2
    12     2     4    1
