@<TRIPOS>MOLECULE
/home/cewinharhar/GITHUB/reincatalyze/data/processed/docking_pred/2023-Apr-25-2248_maxeplen10_maxtrainstep1000_exh16_gamma099_lrac3e-4_lrcr1e-3/51335195432d6c3c52ef841bfe8bb9323d602809_ligand_2.pdbqt
 12 12 0 0 0
SMALL
GASTEIGER

@<TRIPOS>ATOM
      1  C          8.4210   -0.6590   -2.1020 C.3     1  UNL1        0.1270
      2  C          8.4140   -1.9110   -2.8800 C.2     1  UNL1        0.3030
      3  O          7.3090   -2.4140   -3.2200 O.2     1  UNL1       -0.2520
      4  O          9.5970   -2.5630   -3.2570 O.3     1  UNL1       -0.4810
      5  H          9.9560   -2.4120   -4.1900 H       1  UNL1        0.2960
      6  C          7.0750    0.0430   -2.1330 C.3     1  UNL1        0.0470
      7  C          6.4990    0.1500   -0.7670 C.2     1  UNL1       -0.0470
      8  C          6.6110   -0.9000    0.1330 C.2     1  UNL1        0.0040
      9  C          5.8240    1.2740   -0.3260 C.2     1  UNL1        0.0040
     10  C          6.0790   -0.8360    1.4000 C.2     1  UNL1        0.0000
     11  C          5.2920    1.3370    0.9450 C.2     1  UNL1        0.0000
     12  C          5.4060    0.2900    1.8310 C.2     1  UNL1        0.0000
@<TRIPOS>BOND
     1     5     4    1
     2     4     2    1
     3     3     2    2
     4     2     1    1
     5     6     1    1
     6     6     7    1
     7     7     9    2
     8     7     8    1
     9     9    11    1
    10     8    10    2
    11    11    12    2
    12    10    12    1
