@<TRIPOS>MOLECULE
/home/cewinharhar/GITHUB/reincatalyze/data/processed/docking_pred/2023-Apr-25-2248_maxeplen10_maxtrainstep1000_exh16_gamma099_lrac3e-4_lrcr1e-3/51cadb519a72bd0ce332fe372f57097c9ba117cb_ligand_2.pdbqt
 12 12 0 0 0
SMALL
GASTEIGER

@<TRIPOS>ATOM
      1  C          8.3960   -0.8110   -1.9350 C.3     1  UNL1        0.1270
      2  C          8.4160   -1.9670   -2.8490 C.2     1  UNL1        0.3030
      3  O          9.5170   -2.5270   -3.1030 O.2     1  UNL1       -0.2520
      4  O          7.2510   -2.4680   -3.4470 O.3     1  UNL1       -0.4810
      5  H          7.0930   -2.2820   -4.4280 H       1  UNL1        0.2960
      6  C          7.1080   -0.0140   -2.0460 C.3     1  UNL1        0.0470
      7  C          6.4770    0.1660   -0.7130 C.2     1  UNL1       -0.0470
      8  C          6.5670   -0.8260    0.2530 C.2     1  UNL1        0.0040
      9  C          5.7700    1.3040   -0.3670 C.2     1  UNL1        0.0040
     10  C          5.9840   -0.6940    1.4930 C.2     1  UNL1        0.0000
     11  C          5.1870    1.4350    0.8750 C.2     1  UNL1        0.0000
     12  C          5.2800    0.4450    1.8270 C.2     1  UNL1        0.0000
@<TRIPOS>BOND
     1     5     4    1
     2     4     2    1
     3     3     2    2
     4     2     1    1
     5     6     1    1
     6     6     7    1
     7     7     9    2
     8     7     8    1
     9     9    11    1
    10     8    10    2
    11    11    12    2
    12    10    12    1
