@<TRIPOS>MOLECULE
/home/cewinharhar/GITHUB/reincatalyze/data/processed/docking_pred/2023-Apr-25-2248_maxeplen10_maxtrainstep1000_exh16_gamma099_lrac3e-4_lrcr1e-3/51cadb519a72bd0ce332fe372f57097c9ba117cb_ligand_2.pdbqt
 12 12 0 0 0
SMALL
GASTEIGER

@<TRIPOS>ATOM
      1  C          4.9880    1.7760    0.7330 C.3     1  UNL1        0.1270
      2  C          4.4510    1.1090    1.9320 C.2     1  UNL1        0.3030
      3  O          5.1260    0.1930    2.4770 O.2     1  UNL1       -0.2520
      4  O          3.2130    1.4570    2.4920 O.3     1  UNL1       -0.4810
      5  H          3.0370    2.4280    2.7080 H       1  UNL1        0.2960
      6  C          6.5020    1.8820    0.7650 C.3     1  UNL1        0.0470
      7  C          7.1150    1.0740   -0.3210 C.2     1  UNL1       -0.0470
      8  C          8.4500    1.2400   -0.6590 C.2     1  UNL1        0.0040
      9  C          6.4050    0.1370   -1.0490 C.2     1  UNL1        0.0040
     10  C          9.0450    0.5140   -1.6660 C.2     1  UNL1        0.0000
     11  C          7.0010   -0.5890   -2.0570 C.2     1  UNL1        0.0000
     12  C          8.3260   -0.4180   -2.3880 C.2     1  UNL1        0.0000
@<TRIPOS>BOND
     1    12    11    2
     2    12    10    1
     3    11     9    1
     4    10     8    2
     5     9     7    2
     6     8     7    1
     7     7     6    1
     8     1     6    1
     9     1     2    1
    10     2     3    2
    11     2     4    1
    12     4     5    1
