MODEL 1
REMARK VINA RESULT:      -7.3      0.000      0.000
REMARK SMILES O=C(O)CCc1ccccc1
REMARK SMILES IDX 4 1 2 2 1 3 3 4 5 6 6 7 7 8 11 9 8 10 10 11 9 12
REMARK H PARENT 3 5
REMARK Flexibility Score: inf
ROOT
ATOM      1  C   UNL     1       8.396  -0.811  -1.935  1.00  0.00     0.127 C 
ENDROOT
BRANCH   1   2
ATOM      2  C   UNL     1       8.416  -1.967  -2.849  1.00  0.00     0.303 C 
ATOM      3  O   UNL     1       9.517  -2.527  -3.103  1.00  0.00    -0.252 OA
BRANCH   2   4
ATOM      4  O   UNL     1       7.251  -2.468  -3.447  1.00  0.00    -0.481 OA
ATOM      5  H   UNL     1       7.093  -2.282  -4.428  1.00  0.00     0.296 HD
ENDBRANCH   2   4
ENDBRANCH   1   2
BRANCH   1   6
ATOM      6  C   UNL     1       7.108  -0.014  -2.046  1.00  0.00     0.047 C 
BRANCH   6   7
ATOM      7  C   UNL     1       6.477   0.166  -0.713  1.00  0.00    -0.047 A 
ATOM      8  C   UNL     1       6.567  -0.826   0.253  1.00  0.00     0.004 A 
ATOM      9  C   UNL     1       5.770   1.304  -0.367  1.00  0.00     0.004 A 
ATOM     10  C   UNL     1       5.984  -0.694   1.493  1.00  0.00     0.000 A 
ATOM     11  C   UNL     1       5.187   1.435   0.875  1.00  0.00     0.000 A 
ATOM     12  C   UNL     1       5.280   0.445   1.827  1.00  0.00     0.000 A 
ENDBRANCH   6   7
ENDBRANCH   1   6
TORSDOF 4
ENDMDL
MODEL 2
REMARK VINA RESULT:      -7.3      0.148      1.727
REMARK SMILES O=C(O)CCc1ccccc1
REMARK SMILES IDX 4 1 2 2 1 3 3 4 5 6 6 7 7 8 11 9 8 10 10 11 9 12
REMARK H PARENT 3 5
REMARK Flexibility Score: inf
ROOT
ATOM      1  C   UNL     1       8.401  -0.671  -2.104  1.00  0.00     0.127 C 
ENDROOT
BRANCH   1   2
ATOM      2  C   UNL     1       8.398  -1.920  -2.886  1.00  0.00     0.303 C 
ATOM      3  O   UNL     1       7.295  -2.417  -3.244  1.00  0.00    -0.252 OA
BRANCH   2   4
ATOM      4  O   UNL     1       9.582  -2.578  -3.250  1.00  0.00    -0.481 OA
ATOM      5  H   UNL     1      10.464  -2.189  -2.945  1.00  0.00     0.296 HD
ENDBRANCH   2   4
ENDBRANCH   1   2
BRANCH   1   6
ATOM      6  C   UNL     1       7.048   0.017  -2.117  1.00  0.00     0.047 C 
BRANCH   6   7
ATOM      7  C   UNL     1       6.477   0.097  -0.747  1.00  0.00    -0.047 A 
ATOM      8  C   UNL     1       5.797   1.231  -0.329  1.00  0.00     0.004 A 
ATOM      9  C   UNL     1       6.597  -0.927   0.175  1.00  0.00     0.004 A 
ATOM     10  C   UNL     1       5.267   1.340   0.937  1.00  0.00     0.000 A 
ATOM     11  C   UNL     1       6.066  -0.817   1.441  1.00  0.00     0.000 A 
ATOM     12  C   UNL     1       5.393   0.313   1.849  1.00  0.00     0.000 A 
ENDBRANCH   6   7
ENDBRANCH   1   6
TORSDOF 4
ENDMDL
MODEL 3
REMARK VINA RESULT:      -6.8      3.390      5.108
REMARK SMILES O=C(O)CCc1ccccc1
REMARK SMILES IDX 4 1 2 2 1 3 3 4 5 6 6 7 7 8 11 9 8 10 10 11 9 12
REMARK H PARENT 3 5
REMARK Flexibility Score: inf
ROOT
ATOM      1  C   UNL     1       4.988   1.776   0.733  1.00  0.00     0.127 C 
ENDROOT
BRANCH   1   2
ATOM      2  C   UNL     1       4.451   1.109   1.932  1.00  0.00     0.303 C 
ATOM      3  O   UNL     1       5.126   0.193   2.477  1.00  0.00    -0.252 OA
BRANCH   2   4
ATOM      4  O   UNL     1       3.213   1.457   2.492  1.00  0.00    -0.481 OA
ATOM      5  H   UNL     1       3.037   2.428   2.708  1.00  0.00     0.296 HD
ENDBRANCH   2   4
ENDBRANCH   1   2
BRANCH   1   6
ATOM      6  C   UNL     1       6.502   1.882   0.765  1.00  0.00     0.047 C 
BRANCH   6   7
ATOM      7  C   UNL     1       7.115   1.074  -0.321  1.00  0.00    -0.047 A 
ATOM      8  C   UNL     1       8.450   1.240  -0.659  1.00  0.00     0.004 A 
ATOM      9  C   UNL     1       6.405   0.137  -1.049  1.00  0.00     0.004 A 
ATOM     10  C   UNL     1       9.045   0.514  -1.666  1.00  0.00     0.000 A 
ATOM     11  C   UNL     1       7.001  -0.589  -2.057  1.00  0.00     0.000 A 
ATOM     12  C   UNL     1       8.326  -0.418  -2.388  1.00  0.00     0.000 A 
ENDBRANCH   6   7
ENDBRANCH   1   6
TORSDOF 4
ENDMDL
MODEL 4
REMARK VINA RESULT:      -6.6      2.059      2.700
REMARK SMILES O=C(O)CCc1ccccc1
REMARK SMILES IDX 4 1 2 2 1 3 3 4 5 6 6 7 7 8 11 9 8 10 10 11 9 12
REMARK H PARENT 3 5
REMARK Flexibility Score: inf
ROOT
ATOM      1  C   UNL     1       8.020  -2.285   0.726  1.00  0.00     0.127 C 
ENDROOT
BRANCH   1   2
ATOM      2  C   UNL     1       8.806  -3.454   0.296  1.00  0.00     0.303 C 
ATOM      3  O   UNL     1       9.673  -3.930   1.078  1.00  0.00    -0.252 OA
BRANCH   2   4
ATOM      4  O   UNL     1       8.623  -4.059  -0.956  1.00  0.00    -0.481 OA
ATOM      5  H   UNL     1       8.456  -5.056  -0.991  1.00  0.00     0.296 HD
ENDBRANCH   2   4
ENDBRANCH   1   2
BRANCH   1   6
ATOM      6  C   UNL     1       7.477  -1.493  -0.450  1.00  0.00     0.047 C 
BRANCH   6   7
ATOM      7  C   UNL     1       6.603  -0.383   0.012  1.00  0.00    -0.047 A 
ATOM      8  C   UNL     1       6.314   0.685  -0.825  1.00  0.00     0.004 A 
ATOM      9  C   UNL     1       6.048  -0.345   1.278  1.00  0.00     0.004 A 
ATOM     10  C   UNL     1       5.517   1.732  -0.424  1.00  0.00     0.000 A 
ATOM     11  C   UNL     1       5.250   0.705   1.679  1.00  0.00     0.000 A 
ATOM     12  C   UNL     1       4.969   1.761   0.843  1.00  0.00     0.000 A 
ENDBRANCH   6   7
ENDBRANCH   1   6
TORSDOF 4
ENDMDL
MODEL 5
REMARK VINA RESULT:      -6.5      2.075      2.741
REMARK SMILES O=C(O)CCc1ccccc1
REMARK SMILES IDX 4 1 2 2 1 3 3 4 5 6 6 7 7 8 11 9 8 10 10 11 9 12
REMARK H PARENT 3 5
REMARK Flexibility Score: inf
ROOT
ATOM      1  C   UNL     1       8.550   0.654  -1.622  1.00  0.00     0.127 C 
ENDROOT
BRANCH   1   2
ATOM      2  C   UNL     1       9.709   0.268  -0.797  1.00  0.00     0.303 C 
ATOM      3  O   UNL     1       9.532  -0.503   0.185  1.00  0.00    -0.252 OA
BRANCH   2   4
ATOM      4  O   UNL     1      11.006   0.727  -1.068  1.00  0.00    -0.481 OA
ATOM      5  H   UNL     1      11.599   0.987  -0.291  1.00  0.00     0.296 HD
ENDBRANCH   2   4
ENDBRANCH   1   2
BRANCH   1   6
ATOM      6  C   UNL     1       7.365  -0.272  -1.415  1.00  0.00     0.047 C 
BRANCH   6   7
ATOM      7  C   UNL     1       6.464   0.245  -0.352  1.00  0.00    -0.047 A 
ATOM      8  C   UNL     1       5.820   1.465  -0.503  1.00  0.00     0.004 A 
ATOM      9  C   UNL     1       6.229  -0.438   0.827  1.00  0.00     0.004 A 
ATOM     10  C   UNL     1       4.988   1.976   0.467  1.00  0.00     0.000 A 
ATOM     11  C   UNL     1       5.395   0.075   1.797  1.00  0.00     0.000 A 
ATOM     12  C   UNL     1       4.760   1.287   1.642  1.00  0.00     0.000 A 
ENDBRANCH   6   7
ENDBRANCH   1   6
TORSDOF 4
ENDMDL
