@<TRIPOS>MOLECULE
/home/cewinharhar/GITHUB/reincatalyze/data/processed/docking_pred/2023-Apr-25-2248_maxeplen10_maxtrainstep1000_exh16_gamma099_lrac3e-4_lrcr1e-3/51cadb519a72bd0ce332fe372f57097c9ba117cb_ligand_2.pdbqt
 12 12 0 0 0
SMALL
GASTEIGER

@<TRIPOS>ATOM
      1  C          8.0200   -2.2850    0.7260 C.3     1  UNL1        0.1270
      2  C          8.8060   -3.4540    0.2960 C.2     1  UNL1        0.3030
      3  O          9.6730   -3.9300    1.0780 O.2     1  UNL1       -0.2520
      4  O          8.6230   -4.0590   -0.9560 O.3     1  UNL1       -0.4810
      5  H          8.4560   -5.0560   -0.9910 H       1  UNL1        0.2960
      6  C          7.4770   -1.4930   -0.4500 C.3     1  UNL1        0.0470
      7  C          6.6030   -0.3830    0.0120 C.2     1  UNL1       -0.0470
      8  C          6.3140    0.6850   -0.8250 C.2     1  UNL1        0.0040
      9  C          6.0480   -0.3450    1.2780 C.2     1  UNL1        0.0040
     10  C          5.5170    1.7320   -0.4240 C.2     1  UNL1        0.0000
     11  C          5.2500    0.7050    1.6790 C.2     1  UNL1        0.0000
     12  C          4.9690    1.7610    0.8430 C.2     1  UNL1        0.0000
@<TRIPOS>BOND
     1     5     4    1
     2     4     2    1
     3     8    10    1
     4     8     7    2
     5     6     7    1
     6     6     1    1
     7    10    12    2
     8     7     9    1
     9     2     1    1
    10     2     3    2
    11    12    11    1
    12     9    11    2
