@<TRIPOS>MOLECULE
/home/cewinharhar/GITHUB/reincatalyze/data/processed/docking_pred/2023-Apr-25-2248_maxeplen10_maxtrainstep1000_exh16_gamma099_lrac3e-4_lrcr1e-3/51cadb519a72bd0ce332fe372f57097c9ba117cb_ligand_2.pdbqt
 12 12 0 0 0
SMALL
GASTEIGER

@<TRIPOS>ATOM
      1  C          8.5500    0.6540   -1.6220 C.3     1  UNL1        0.1270
      2  C          9.7090    0.2680   -0.7970 C.2     1  UNL1        0.3030
      3  O          9.5320   -0.5030    0.1850 O.2     1  UNL1       -0.2520
      4  O         11.0060    0.7270   -1.0680 O.3     1  UNL1       -0.4810
      5  H         11.5990    0.9870   -0.2910 H       1  UNL1        0.2960
      6  C          7.3650   -0.2720   -1.4150 C.3     1  UNL1        0.0470
      7  C          6.4640    0.2450   -0.3520 C.2     1  UNL1       -0.0470
      8  C          5.8200    1.4650   -0.5030 C.2     1  UNL1        0.0040
      9  C          6.2290   -0.4380    0.8270 C.2     1  UNL1        0.0040
     10  C          4.9880    1.9760    0.4670 C.2     1  UNL1        0.0000
     11  C          5.3950    0.0750    1.7970 C.2     1  UNL1        0.0000
     12  C          4.7600    1.2870    1.6420 C.2     1  UNL1        0.0000
@<TRIPOS>BOND
     1     1     6    1
     2     1     2    1
     3     6     7    1
     4     4     2    1
     5     4     5    1
     6     2     3    2
     7     8     7    2
     8     8    10    1
     9     7     9    1
    10    10    12    2
    11     9    11    2
    12    12    11    1
