@<TRIPOS>MOLECULE
/home/cewinharhar/GITHUB/reincatalyze/data/processed/docking_pred/2023-Apr-25-2248_maxeplen10_maxtrainstep1000_exh16_gamma099_lrac3e-4_lrcr1e-3/51cadb519a72bd0ce332fe372f57097c9ba117cb_ligand_2.pdbqt
 12 12 0 0 0
SMALL
GASTEIGER

@<TRIPOS>ATOM
      1  C          8.4010   -0.6710   -2.1040 C.3     1  UNL1        0.1270
      2  C          8.3980   -1.9200   -2.8860 C.2     1  UNL1        0.3030
      3  O          7.2950   -2.4170   -3.2440 O.2     1  UNL1       -0.2520
      4  O          9.5820   -2.5780   -3.2500 O.3     1  UNL1       -0.4810
      5  H         10.4640   -2.1890   -2.9450 H       1  UNL1        0.2960
      6  C          7.0480    0.0170   -2.1170 C.3     1  UNL1        0.0470
      7  C          6.4770    0.0970   -0.7470 C.2     1  UNL1       -0.0470
      8  C          5.7970    1.2310   -0.3290 C.2     1  UNL1        0.0040
      9  C          6.5970   -0.9270    0.1750 C.2     1  UNL1        0.0040
     10  C          5.2670    1.3400    0.9370 C.2     1  UNL1        0.0000
     11  C          6.0660   -0.8170    1.4410 C.2     1  UNL1        0.0000
     12  C          5.3930    0.3130    1.8490 C.2     1  UNL1        0.0000
@<TRIPOS>BOND
     1     4     5    1
     2     4     2    1
     3     3     2    2
     4     2     1    1
     5     6     1    1
     6     6     7    1
     7     7     8    2
     8     7     9    1
     9     8    10    1
    10     9    11    2
    11    10    12    2
    12    11    12    1
