@<TRIPOS>MOLECULE
/home/cewinharhar/GITHUB/reincatalyze/data/processed/docking_pred/2023-Apr-25-2248_maxeplen10_maxtrainstep1000_exh16_gamma099_lrac3e-4_lrcr1e-3/53c3fbcdd7c01d09a3e8b21e27d629f70ce21da9_ligand_2.pdbqt
 12 12 0 0 0
SMALL
GASTEIGER

@<TRIPOS>ATOM
      1  C          8.4060   -0.7350   -2.0430 C.3     1  UNL1        0.1270
      2  C          8.4180   -1.9640   -2.8560 C.2     1  UNL1        0.3030
      3  O          9.5080   -2.5770   -3.0220 O.2     1  UNL1       -0.2520
      4  O          7.2580   -2.4790   -3.4510 O.3     1  UNL1       -0.4810
      5  H          6.8110   -1.9430   -4.1830 H       1  UNL1        0.2960
      6  C          7.0610   -0.0320   -2.0860 C.3     1  UNL1        0.0470
      7  C          6.4810    0.0920   -0.7230 C.2     1  UNL1       -0.0470
      8  C          6.5960   -0.9440    0.1920 C.2     1  UNL1        0.0040
      9  C          5.8000    1.2190   -0.3000 C.2     1  UNL1        0.0040
     10  C          6.0610   -0.8640    1.4580 C.2     1  UNL1        0.0000
     11  C          5.2650    1.2980    0.9680 C.2     1  UNL1        0.0000
     12  C          5.3820    0.2650    1.8700 C.2     1  UNL1        0.0000
@<TRIPOS>BOND
     1     5     4    1
     2     4     2    1
     3     3     2    2
     4     2     1    1
     5     6     1    1
     6     6     7    1
     7     7     9    2
     8     7     8    1
     9     9    11    1
    10     8    10    2
    11    11    12    2
    12    10    12    1
