@<TRIPOS>MOLECULE
/home/cewinharhar/GITHUB/reincatalyze/data/processed/docking_pred/2023-Apr-25-2248_maxeplen10_maxtrainstep1000_exh16_gamma099_lrac3e-4_lrcr1e-3/53c3fbcdd7c01d09a3e8b21e27d629f70ce21da9_ligand_2.pdbqt
 12 12 0 0 0
SMALL
GASTEIGER

@<TRIPOS>ATOM
      1  C          8.5300   -0.5800   -2.3680 C.3     1  UNL1        0.1270
      2  C          8.4870   -1.9130   -2.9940 C.2     1  UNL1        0.3030
      3  O          9.5560   -2.5720   -3.1040 O.2     1  UNL1       -0.2520
      4  O          7.2950   -2.4770   -3.4720 O.3     1  UNL1       -0.4810
      5  H          6.4390   -1.9460   -3.3820 H       1  UNL1        0.2960
      6  C          7.1480    0.0350   -2.2300 C.3     1  UNL1        0.0470
      7  C          6.7520    0.1410   -0.8020 C.2     1  UNL1       -0.0470
      8  C          5.8000    1.0670   -0.3980 C.2     1  UNL1        0.0040
      9  C          7.3040   -0.6500    0.1890 C.2     1  UNL1        0.0040
     10  C          5.4200    1.1970    0.9180 C.2     1  UNL1        0.0000
     11  C          6.9220   -0.5180    1.5070 C.2     1  UNL1        0.0000
     12  C          5.9780    0.4030    1.8990 C.2     1  UNL1        0.0000
@<TRIPOS>BOND
     1     4     5    1
     2     4     2    1
     3     3     2    2
     4     2     1    1
     5     1     6    1
     6     6     7    1
     7     7     8    2
     8     7     9    1
     9     8    10    1
    10     9    11    2
    11    10    12    2
    12    11    12    1
