@<TRIPOS>MOLECULE
/home/cewinharhar/GITHUB/reincatalyze/data/processed/docking_pred/2023-Apr-25-2248_maxeplen10_maxtrainstep1000_exh16_gamma099_lrac3e-4_lrcr1e-3/53c3fbcdd7c01d09a3e8b21e27d629f70ce21da9_ligand_2.pdbqt
 12 12 0 0 0
SMALL
GASTEIGER

@<TRIPOS>ATOM
      1  C          4.9890    1.7830    0.7010 C.3     1  UNL1        0.1270
      2  C          4.4820    1.1160    1.9130 C.2     1  UNL1        0.3030
      3  O          5.1850    0.2230    2.4600 O.2     1  UNL1       -0.2520
      4  O          3.2420    1.4400    2.4820 O.3     1  UNL1       -0.4810
      5  H          3.2060    2.1710    3.1800 H       1  UNL1        0.2960
      6  C          6.4980    1.9490    0.7260 C.3     1  UNL1        0.0470
      7  C          7.1390    1.1490   -0.3500 C.2     1  UNL1       -0.0470
      8  C          6.3910    0.2710   -1.1210 C.2     1  UNL1        0.0040
      9  C          8.4910    1.2230   -0.6330 C.2     1  UNL1        0.0040
     10  C          6.9570   -0.4910   -2.1170 C.2     1  UNL1        0.0000
     11  C          9.0560    0.4590   -1.6310 C.2     1  UNL1        0.0000
     12  C          8.3070   -0.4100   -2.3910 C.2     1  UNL1        0.0000
@<TRIPOS>BOND
     1    12    10    2
     2    12    11    1
     3    10     8    1
     4    11     9    2
     5     8     7    2
     6     9     7    1
     7     7     6    1
     8     1     6    1
     9     1     2    1
    10     2     3    2
    11     2     4    1
    12     4     5    1
