@<TRIPOS>MOLECULE
/home/cewinharhar/GITHUB/reincatalyze/data/processed/docking_pred/2023-Apr-25-2248_maxeplen10_maxtrainstep1000_exh16_gamma099_lrac3e-4_lrcr1e-3/53c3fbcdd7c01d09a3e8b21e27d629f70ce21da9_ligand_2.pdbqt
 12 12 0 0 0
SMALL
GASTEIGER

@<TRIPOS>ATOM
      1  C          8.3080   -1.6270    1.0960 C.3     1  UNL1        0.1270
      2  C          8.6820   -2.8950    0.4440 C.2     1  UNL1        0.3030
      3  O          9.4040   -3.7170    1.0730 O.2     1  UNL1       -0.2520
      4  O          8.2620   -3.2220   -0.8530 O.3     1  UNL1       -0.4810
      5  H          7.9360   -4.1630   -1.0320 H       1  UNL1        0.2960
      6  C          6.8190   -1.5450    1.3790 C.3     1  UNL1        0.0470
      7  C          6.2450   -0.2810    0.8490 C.2     1  UNL1       -0.0470
      8  C          6.4660    0.1010   -0.4660 C.2     1  UNL1        0.0040
      9  C          5.4820    0.5760    1.6220 C.2     1  UNL1        0.0040
     10  C          5.9580    1.2700   -0.9830 C.2     1  UNL1        0.0000
     11  C          4.9730    1.7470    1.1030 C.2     1  UNL1        0.0000
     12  C          5.1980    2.1190   -0.2030 C.2     1  UNL1        0.0000
@<TRIPOS>BOND
     1     5     4    1
     2    10     8    1
     3    10    12    2
     4     4     2    1
     5     8     7    2
     6    12    11    1
     7     2     3    2
     8     2     1    1
     9     7     6    1
    10     7     9    1
    11     1     6    1
    12    11     9    2
