MODEL 1
REMARK VINA RESULT:      -7.3      0.000      0.000
REMARK SMILES O=C(O)CCc1ccccc1
REMARK SMILES IDX 4 1 2 2 1 3 3 4 5 6 6 7 7 8 11 9 8 10 10 11 9 12
REMARK H PARENT 3 5
REMARK Flexibility Score: inf
ROOT
ATOM      1  C   UNL     1       8.406  -0.735  -2.043  1.00  0.00     0.127 C 
ENDROOT
BRANCH   1   2
ATOM      2  C   UNL     1       8.418  -1.964  -2.856  1.00  0.00     0.303 C 
ATOM      3  O   UNL     1       9.508  -2.577  -3.022  1.00  0.00    -0.252 OA
BRANCH   2   4
ATOM      4  O   UNL     1       7.258  -2.479  -3.451  1.00  0.00    -0.481 OA
ATOM      5  H   UNL     1       6.811  -1.943  -4.183  1.00  0.00     0.296 HD
ENDBRANCH   2   4
ENDBRANCH   1   2
BRANCH   1   6
ATOM      6  C   UNL     1       7.061  -0.032  -2.086  1.00  0.00     0.047 C 
BRANCH   6   7
ATOM      7  C   UNL     1       6.481   0.092  -0.723  1.00  0.00    -0.047 A 
ATOM      8  C   UNL     1       6.596  -0.944   0.192  1.00  0.00     0.004 A 
ATOM      9  C   UNL     1       5.800   1.219  -0.300  1.00  0.00     0.004 A 
ATOM     10  C   UNL     1       6.061  -0.864   1.458  1.00  0.00     0.000 A 
ATOM     11  C   UNL     1       5.265   1.298   0.968  1.00  0.00     0.000 A 
ATOM     12  C   UNL     1       5.382   0.265   1.870  1.00  0.00     0.000 A 
ENDBRANCH   6   7
ENDBRANCH   1   6
TORSDOF 4
ENDMDL
MODEL 2
REMARK VINA RESULT:      -7.3      0.140      1.725
REMARK SMILES O=C(O)CCc1ccccc1
REMARK SMILES IDX 4 1 2 2 1 3 3 4 5 6 6 7 7 8 11 9 8 10 10 11 9 12
REMARK H PARENT 3 5
REMARK Flexibility Score: inf
ROOT
ATOM      1  C   UNL     1       8.417  -0.638  -2.143  1.00  0.00     0.127 C 
ENDROOT
BRANCH   1   2
ATOM      2  C   UNL     1       8.408  -1.907  -2.893  1.00  0.00     0.303 C 
ATOM      3  O   UNL     1       7.302  -2.410  -3.232  1.00  0.00    -0.252 OA
BRANCH   2   4
ATOM      4  O   UNL     1       9.589  -2.575  -3.247  1.00  0.00    -0.481 OA
ATOM      5  H   UNL     1       9.940  -3.296  -2.631  1.00  0.00     0.296 HD
ENDBRANCH   2   4
ENDBRANCH   1   2
BRANCH   1   6
ATOM      6  C   UNL     1       7.064   0.050  -2.163  1.00  0.00     0.047 C 
BRANCH   6   7
ATOM      7  C   UNL     1       6.488   0.133  -0.795  1.00  0.00    -0.047 A 
ATOM      8  C   UNL     1       5.789   1.260  -0.389  1.00  0.00     0.004 A 
ATOM      9  C   UNL     1       6.620  -0.882   0.135  1.00  0.00     0.004 A 
ATOM     10  C   UNL     1       5.253   1.371   0.873  1.00  0.00     0.000 A 
ATOM     11  C   UNL     1       6.082  -0.769   1.399  1.00  0.00     0.000 A 
ATOM     12  C   UNL     1       5.391   0.353   1.795  1.00  0.00     0.000 A 
ENDBRANCH   6   7
ENDBRANCH   1   6
TORSDOF 4
ENDMDL
MODEL 3
REMARK VINA RESULT:      -7.1      0.446      1.445
REMARK SMILES O=C(O)CCc1ccccc1
REMARK SMILES IDX 4 1 2 2 1 3 3 4 5 6 6 7 7 8 11 9 8 10 10 11 9 12
REMARK H PARENT 3 5
REMARK Flexibility Score: inf
ROOT
ATOM      1  C   UNL     1       8.530  -0.580  -2.368  1.00  0.00     0.127 C 
ENDROOT
BRANCH   1   2
ATOM      2  C   UNL     1       8.487  -1.913  -2.994  1.00  0.00     0.303 C 
ATOM      3  O   UNL     1       9.556  -2.572  -3.104  1.00  0.00    -0.252 OA
BRANCH   2   4
ATOM      4  O   UNL     1       7.295  -2.477  -3.472  1.00  0.00    -0.481 OA
ATOM      5  H   UNL     1       6.439  -1.946  -3.382  1.00  0.00     0.296 HD
ENDBRANCH   2   4
ENDBRANCH   1   2
BRANCH   1   6
ATOM      6  C   UNL     1       7.148   0.035  -2.230  1.00  0.00     0.047 C 
BRANCH   6   7
ATOM      7  C   UNL     1       6.752   0.141  -0.802  1.00  0.00    -0.047 A 
ATOM      8  C   UNL     1       5.800   1.067  -0.398  1.00  0.00     0.004 A 
ATOM      9  C   UNL     1       7.304  -0.650   0.189  1.00  0.00     0.004 A 
ATOM     10  C   UNL     1       5.420   1.197   0.918  1.00  0.00     0.000 A 
ATOM     11  C   UNL     1       6.922  -0.518   1.507  1.00  0.00     0.000 A 
ATOM     12  C   UNL     1       5.978   0.403   1.899  1.00  0.00     0.000 A 
ENDBRANCH   6   7
ENDBRANCH   1   6
TORSDOF 4
ENDMDL
MODEL 4
REMARK VINA RESULT:      -6.8      3.396      5.079
REMARK SMILES O=C(O)CCc1ccccc1
REMARK SMILES IDX 4 1 2 2 1 3 3 4 5 6 6 7 7 8 11 9 8 10 10 11 9 12
REMARK H PARENT 3 5
REMARK Flexibility Score: inf
ROOT
ATOM      1  C   UNL     1       4.989   1.783   0.701  1.00  0.00     0.127 C 
ENDROOT
BRANCH   1   2
ATOM      2  C   UNL     1       4.482   1.116   1.913  1.00  0.00     0.303 C 
ATOM      3  O   UNL     1       5.185   0.223   2.460  1.00  0.00    -0.252 OA
BRANCH   2   4
ATOM      4  O   UNL     1       3.242   1.440   2.482  1.00  0.00    -0.481 OA
ATOM      5  H   UNL     1       3.206   2.171   3.180  1.00  0.00     0.296 HD
ENDBRANCH   2   4
ENDBRANCH   1   2
BRANCH   1   6
ATOM      6  C   UNL     1       6.498   1.949   0.726  1.00  0.00     0.047 C 
BRANCH   6   7
ATOM      7  C   UNL     1       7.139   1.149  -0.350  1.00  0.00    -0.047 A 
ATOM      8  C   UNL     1       6.391   0.271  -1.121  1.00  0.00     0.004 A 
ATOM      9  C   UNL     1       8.491   1.223  -0.633  1.00  0.00     0.004 A 
ATOM     10  C   UNL     1       6.957  -0.491  -2.117  1.00  0.00     0.000 A 
ATOM     11  C   UNL     1       9.056   0.459  -1.631  1.00  0.00     0.000 A 
ATOM     12  C   UNL     1       8.307  -0.410  -2.391  1.00  0.00     0.000 A 
ENDBRANCH   6   7
ENDBRANCH   1   6
TORSDOF 4
ENDMDL
MODEL 5
REMARK VINA RESULT:      -6.6      1.935      2.864
REMARK SMILES O=C(O)CCc1ccccc1
REMARK SMILES IDX 4 1 2 2 1 3 3 4 5 6 6 7 7 8 11 9 8 10 10 11 9 12
REMARK H PARENT 3 5
REMARK Flexibility Score: inf
ROOT
ATOM      1  C   UNL     1       8.308  -1.627   1.096  1.00  0.00     0.127 C 
ENDROOT
BRANCH   1   2
ATOM      2  C   UNL     1       8.682  -2.895   0.444  1.00  0.00     0.303 C 
ATOM      3  O   UNL     1       9.404  -3.717   1.073  1.00  0.00    -0.252 OA
BRANCH   2   4
ATOM      4  O   UNL     1       8.262  -3.222  -0.853  1.00  0.00    -0.481 OA
ATOM      5  H   UNL     1       7.936  -4.163  -1.032  1.00  0.00     0.296 HD
ENDBRANCH   2   4
ENDBRANCH   1   2
BRANCH   1   6
ATOM      6  C   UNL     1       6.819  -1.545   1.379  1.00  0.00     0.047 C 
BRANCH   6   7
ATOM      7  C   UNL     1       6.245  -0.281   0.849  1.00  0.00    -0.047 A 
ATOM      8  C   UNL     1       6.466   0.101  -0.466  1.00  0.00     0.004 A 
ATOM      9  C   UNL     1       5.482   0.576   1.622  1.00  0.00     0.004 A 
ATOM     10  C   UNL     1       5.958   1.270  -0.983  1.00  0.00     0.000 A 
ATOM     11  C   UNL     1       4.973   1.747   1.103  1.00  0.00     0.000 A 
ATOM     12  C   UNL     1       5.198   2.119  -0.203  1.00  0.00     0.000 A 
ENDBRANCH   6   7
ENDBRANCH   1   6
TORSDOF 4
ENDMDL
