@<TRIPOS>MOLECULE
/home/cewinharhar/GITHUB/reincatalyze/data/processed/docking_pred/2023-Apr-25-2248_maxeplen10_maxtrainstep1000_exh16_gamma099_lrac3e-4_lrcr1e-3/544f4ddee7da09465e084ab518e20d4fbc72de61_ligand_2.pdbqt
 12 12 0 0 0
SMALL
GASTEIGER

@<TRIPOS>ATOM
      1  C          8.4080   -0.6010   -2.1990 C.3     1  UNL1        0.1270
      2  C          8.4380   -1.8880   -2.9150 C.2     1  UNL1        0.3030
      3  O          9.5430   -2.4730   -3.0770 O.2     1  UNL1       -0.2520
      4  O          7.2770   -2.4890   -3.4240 O.3     1  UNL1       -0.4810
      5  H          7.3370   -3.4330   -3.7810 H       1  UNL1        0.2960
      6  C          7.0120   -0.0050   -2.1480 C.3     1  UNL1        0.0470
      7  C          6.4960    0.0240   -0.7540 C.2     1  UNL1       -0.0470
      8  C          5.8670    1.1560   -0.2560 C.2     1  UNL1        0.0040
      9  C          6.6190   -1.0470    0.1120 C.2     1  UNL1        0.0040
     10  C          5.3890    1.2180    1.0330 C.2     1  UNL1        0.0000
     11  C          6.1390   -0.9830    1.4030 C.2     1  UNL1        0.0000
     12  C          5.5170    0.1440    1.8900 C.2     1  UNL1        0.0000
@<TRIPOS>BOND
     1     5     4    1
     2     4     2    1
     3     3     2    2
     4     2     1    1
     5     1     6    1
     6     6     7    1
     7     7     8    2
     8     7     9    1
     9     8    10    1
    10     9    11    2
    11    10    12    2
    12    11    12    1
