@<TRIPOS>MOLECULE
/home/cewinharhar/GITHUB/reincatalyze/data/processed/docking_pred/2023-Apr-25-2248_maxeplen10_maxtrainstep1000_exh16_gamma099_lrac3e-4_lrcr1e-3/544f4ddee7da09465e084ab518e20d4fbc72de61_ligand_2.pdbqt
 12 12 0 0 0
SMALL
GASTEIGER

@<TRIPOS>ATOM
      1  C          7.9590   -2.2700    0.7250 C.3     1  UNL1        0.1270
      2  C          8.7790   -3.4200    0.3060 C.2     1  UNL1        0.3030
      3  O          9.6430   -3.8790    1.1020 O.2     1  UNL1       -0.2520
      4  O          8.6330   -4.0250   -0.9510 O.3     1  UNL1       -0.4810
      5  H          8.9850   -3.5400   -1.7650 H       1  UNL1        0.2960
      6  C          7.4340   -1.4780   -0.4580 C.3     1  UNL1        0.0470
      7  C          6.5840   -0.3450   -0.0060 C.2     1  UNL1       -0.0470
      8  C          6.0420   -0.3330    1.2710 C.2     1  UNL1        0.0040
      9  C          6.2820    0.7340   -0.8170 C.2     1  UNL1        0.0040
     10  C          5.2430    0.6950    1.7160 C.2     1  UNL1        0.0000
     11  C          5.4810    1.7630   -0.3700 C.2     1  UNL1        0.0000
     12  C          4.9460    1.7670    0.8990 C.2     1  UNL1        0.0000
@<TRIPOS>BOND
     1     5     4    1
     2     4     2    1
     3     9    11    1
     4     9     7    2
     5     6     7    1
     6     6     1    1
     7    11    12    2
     8     7     8    1
     9     2     1    1
    10     2     3    2
    11    12    10    1
    12     8    10    2
