@<TRIPOS>MOLECULE
/home/cewinharhar/GITHUB/reincatalyze/data/processed/docking_pred/2023-Apr-25-2248_maxeplen10_maxtrainstep1000_exh16_gamma099_lrac3e-4_lrcr1e-3/544f4ddee7da09465e084ab518e20d4fbc72de61_ligand_2.pdbqt
 12 12 0 0 0
SMALL
GASTEIGER

@<TRIPOS>ATOM
      1  C          8.4050   -0.8690   -1.8750 C.3     1  UNL1        0.1270
      2  C          8.3750   -1.9880   -2.8330 C.2     1  UNL1        0.3030
      3  O          7.2640   -2.3800   -3.2830 O.2     1  UNL1       -0.2520
      4  O          9.5430   -2.6330   -3.2650 O.3     1  UNL1       -0.4810
      5  H         10.1140   -2.1810   -3.9670 H       1  UNL1        0.2960
      6  C          7.1680    0.0060   -1.9760 C.3     1  UNL1        0.0470
      7  C          6.5030    0.1440   -0.6540 C.2     1  UNL1       -0.0470
      8  C          5.7480    1.2690   -0.3560 C.2     1  UNL1        0.0040
      9  C          6.6040   -0.8140    0.3380 C.2     1  UNL1        0.0040
     10  C          5.1290    1.4310    0.8620 C.2     1  UNL1        0.0000
     11  C          5.9840   -0.6500    1.5580 C.2     1  UNL1        0.0000
     12  C          5.2370    0.4690    1.8470 C.2     1  UNL1        0.0000
@<TRIPOS>BOND
     1     5     4    1
     2     3     2    2
     3     4     2    1
     4     2     1    1
     5     6     1    1
     6     6     7    1
     7     7     8    2
     8     7     9    1
     9     8    10    1
    10     9    11    2
    11    10    12    2
    12    11    12    1
