MODEL 1
REMARK VINA RESULT:      -7.3      0.000      0.000
REMARK SMILES O=C(O)CCc1ccccc1
REMARK SMILES IDX 4 1 2 2 1 3 3 4 5 6 6 7 7 8 11 9 8 10 10 11 9 12
REMARK H PARENT 3 5
REMARK Flexibility Score: inf
ROOT
ATOM      1  C   UNL     1       8.408  -0.601  -2.199  1.00  0.00     0.127 C 
ENDROOT
BRANCH   1   2
ATOM      2  C   UNL     1       8.438  -1.888  -2.915  1.00  0.00     0.303 C 
ATOM      3  O   UNL     1       9.543  -2.473  -3.077  1.00  0.00    -0.252 OA
BRANCH   2   4
ATOM      4  O   UNL     1       7.277  -2.489  -3.424  1.00  0.00    -0.481 OA
ATOM      5  H   UNL     1       7.337  -3.433  -3.781  1.00  0.00     0.296 HD
ENDBRANCH   2   4
ENDBRANCH   1   2
BRANCH   1   6
ATOM      6  C   UNL     1       7.012  -0.005  -2.148  1.00  0.00     0.047 C 
BRANCH   6   7
ATOM      7  C   UNL     1       6.496   0.024  -0.754  1.00  0.00    -0.047 A 
ATOM      8  C   UNL     1       5.867   1.156  -0.256  1.00  0.00     0.004 A 
ATOM      9  C   UNL     1       6.619  -1.047   0.112  1.00  0.00     0.004 A 
ATOM     10  C   UNL     1       5.389   1.218   1.033  1.00  0.00     0.000 A 
ATOM     11  C   UNL     1       6.139  -0.983   1.403  1.00  0.00     0.000 A 
ATOM     12  C   UNL     1       5.517   0.144   1.890  1.00  0.00     0.000 A 
ENDBRANCH   6   7
ENDBRANCH   1   6
TORSDOF 4
ENDMDL
MODEL 2
REMARK VINA RESULT:      -7.3      0.188      1.729
REMARK SMILES O=C(O)CCc1ccccc1
REMARK SMILES IDX 4 1 2 2 1 3 3 4 5 6 6 7 7 8 11 9 8 10 10 11 9 12
REMARK H PARENT 3 5
REMARK Flexibility Score: inf
ROOT
ATOM      1  C   UNL     1       8.407  -0.714  -2.048  1.00  0.00     0.127 C 
ENDROOT
BRANCH   1   2
ATOM      2  C   UNL     1       8.388  -1.934  -2.874  1.00  0.00     0.303 C 
ATOM      3  O   UNL     1       7.280  -2.390  -3.267  1.00  0.00    -0.252 OA
BRANCH   2   4
ATOM      4  O   UNL     1       9.562  -2.607  -3.241  1.00  0.00    -0.481 OA
ATOM      5  H   UNL     1      10.086  -3.090  -2.524  1.00  0.00     0.296 HD
ENDBRANCH   2   4
ENDBRANCH   1   2
BRANCH   1   6
ATOM      6  C   UNL     1       7.088   0.036  -2.102  1.00  0.00     0.047 C 
BRANCH   6   7
ATOM      7  C   UNL     1       6.491   0.161  -0.746  1.00  0.00    -0.047 A 
ATOM      8  C   UNL     1       6.626  -0.860   0.183  1.00  0.00     0.004 A 
ATOM      9  C   UNL     1       5.774   1.273  -0.344  1.00  0.00     0.004 A 
ATOM     10  C   UNL     1       6.076  -0.779   1.442  1.00  0.00     0.000 A 
ATOM     11  C   UNL     1       5.224   1.353   0.917  1.00  0.00     0.000 A 
ATOM     12  C   UNL     1       5.361   0.335   1.834  1.00  0.00     0.000 A 
ENDBRANCH   6   7
ENDBRANCH   1   6
TORSDOF 4
ENDMDL
MODEL 3
REMARK VINA RESULT:      -7.2      0.301      1.015
REMARK SMILES O=C(O)CCc1ccccc1
REMARK SMILES IDX 4 1 2 2 1 3 3 4 5 6 6 7 7 8 11 9 8 10 10 11 9 12
REMARK H PARENT 3 5
REMARK Flexibility Score: inf
ROOT
ATOM      1  C   UNL     1       8.405  -0.869  -1.875  1.00  0.00     0.127 C 
ENDROOT
BRANCH   1   2
ATOM      2  C   UNL     1       8.375  -1.988  -2.833  1.00  0.00     0.303 C 
ATOM      3  O   UNL     1       7.264  -2.380  -3.283  1.00  0.00    -0.252 OA
BRANCH   2   4
ATOM      4  O   UNL     1       9.543  -2.633  -3.265  1.00  0.00    -0.481 OA
ATOM      5  H   UNL     1      10.114  -2.181  -3.967  1.00  0.00     0.296 HD
ENDBRANCH   2   4
ENDBRANCH   1   2
BRANCH   1   6
ATOM      6  C   UNL     1       7.168   0.006  -1.976  1.00  0.00     0.047 C 
BRANCH   6   7
ATOM      7  C   UNL     1       6.503   0.144  -0.654  1.00  0.00    -0.047 A 
ATOM      8  C   UNL     1       5.748   1.269  -0.356  1.00  0.00     0.004 A 
ATOM      9  C   UNL     1       6.604  -0.814   0.338  1.00  0.00     0.004 A 
ATOM     10  C   UNL     1       5.129   1.431   0.862  1.00  0.00     0.000 A 
ATOM     11  C   UNL     1       5.984  -0.650   1.558  1.00  0.00     0.000 A 
ATOM     12  C   UNL     1       5.237   0.469   1.847  1.00  0.00     0.000 A 
ENDBRANCH   6   7
ENDBRANCH   1   6
TORSDOF 4
ENDMDL
MODEL 4
REMARK VINA RESULT:      -6.8      3.393      5.085
REMARK SMILES O=C(O)CCc1ccccc1
REMARK SMILES IDX 4 1 2 2 1 3 3 4 5 6 6 7 7 8 11 9 8 10 10 11 9 12
REMARK H PARENT 3 5
REMARK Flexibility Score: inf
ROOT
ATOM      1  C   UNL     1       4.993   1.781   0.711  1.00  0.00     0.127 C 
ENDROOT
BRANCH   1   2
ATOM      2  C   UNL     1       4.472   1.114   1.917  1.00  0.00     0.303 C 
ATOM      3  O   UNL     1       5.161   0.210   2.463  1.00  0.00    -0.252 OA
BRANCH   2   4
ATOM      4  O   UNL     1       3.233   1.451   2.482  1.00  0.00    -0.481 OA
ATOM      5  H   UNL     1       3.086   2.402   2.792  1.00  0.00     0.296 HD
ENDBRANCH   2   4
ENDBRANCH   1   2
BRANCH   1   6
ATOM      6  C   UNL     1       6.503   1.930   0.745  1.00  0.00     0.047 C 
BRANCH   6   7
ATOM      7  C   UNL     1       7.142   1.134  -0.335  1.00  0.00    -0.047 A 
ATOM      8  C   UNL     1       6.396   0.243  -1.093  1.00  0.00     0.004 A 
ATOM      9  C   UNL     1       8.489   1.224  -0.634  1.00  0.00     0.004 A 
ATOM     10  C   UNL     1       6.960  -0.516  -2.093  1.00  0.00     0.000 A 
ATOM     11  C   UNL     1       9.052   0.462  -1.636  1.00  0.00     0.000 A 
ATOM     12  C   UNL     1       8.306  -0.420  -2.383  1.00  0.00     0.000 A 
ENDBRANCH   6   7
ENDBRANCH   1   6
TORSDOF 4
ENDMDL
MODEL 5
REMARK VINA RESULT:      -6.6      2.030      2.773
REMARK SMILES O=C(O)CCc1ccccc1
REMARK SMILES IDX 4 1 2 2 1 3 3 4 5 6 6 7 7 8 11 9 8 10 10 11 9 12
REMARK H PARENT 3 5
REMARK Flexibility Score: inf
ROOT
ATOM      1  C   UNL     1       7.959  -2.270   0.725  1.00  0.00     0.127 C 
ENDROOT
BRANCH   1   2
ATOM      2  C   UNL     1       8.779  -3.420   0.306  1.00  0.00     0.303 C 
ATOM      3  O   UNL     1       9.643  -3.879   1.102  1.00  0.00    -0.252 OA
BRANCH   2   4
ATOM      4  O   UNL     1       8.633  -4.025  -0.951  1.00  0.00    -0.481 OA
ATOM      5  H   UNL     1       8.985  -3.540  -1.765  1.00  0.00     0.296 HD
ENDBRANCH   2   4
ENDBRANCH   1   2
BRANCH   1   6
ATOM      6  C   UNL     1       7.434  -1.478  -0.458  1.00  0.00     0.047 C 
BRANCH   6   7
ATOM      7  C   UNL     1       6.584  -0.345  -0.006  1.00  0.00    -0.047 A 
ATOM      8  C   UNL     1       6.042  -0.333   1.271  1.00  0.00     0.004 A 
ATOM      9  C   UNL     1       6.282   0.734  -0.817  1.00  0.00     0.004 A 
ATOM     10  C   UNL     1       5.243   0.695   1.716  1.00  0.00     0.000 A 
ATOM     11  C   UNL     1       5.481   1.763  -0.370  1.00  0.00     0.000 A 
ATOM     12  C   UNL     1       4.946   1.767   0.899  1.00  0.00     0.000 A 
ENDBRANCH   6   7
ENDBRANCH   1   6
TORSDOF 4
ENDMDL
