@<TRIPOS>MOLECULE
/home/cewinharhar/GITHUB/reincatalyze/data/processed/docking_pred/2023-Apr-25-2248_maxeplen10_maxtrainstep1000_exh16_gamma099_lrac3e-4_lrcr1e-3/544f4ddee7da09465e084ab518e20d4fbc72de61_ligand_2.pdbqt
 12 12 0 0 0
SMALL
GASTEIGER

@<TRIPOS>ATOM
      1  C          8.4070   -0.7140   -2.0480 C.3     1  UNL1        0.1270
      2  C          8.3880   -1.9340   -2.8740 C.2     1  UNL1        0.3030
      3  O          7.2800   -2.3900   -3.2670 O.2     1  UNL1       -0.2520
      4  O          9.5620   -2.6070   -3.2410 O.3     1  UNL1       -0.4810
      5  H         10.0860   -3.0900   -2.5240 H       1  UNL1        0.2960
      6  C          7.0880    0.0360   -2.1020 C.3     1  UNL1        0.0470
      7  C          6.4910    0.1610   -0.7460 C.2     1  UNL1       -0.0470
      8  C          6.6260   -0.8600    0.1830 C.2     1  UNL1        0.0040
      9  C          5.7740    1.2730   -0.3440 C.2     1  UNL1        0.0040
     10  C          6.0760   -0.7790    1.4420 C.2     1  UNL1        0.0000
     11  C          5.2240    1.3530    0.9170 C.2     1  UNL1        0.0000
     12  C          5.3610    0.3350    1.8340 C.2     1  UNL1        0.0000
@<TRIPOS>BOND
     1     3     2    2
     2     4     2    1
     3     4     5    1
     4     2     1    1
     5     6     1    1
     6     6     7    1
     7     7     9    2
     8     7     8    1
     9     9    11    1
    10     8    10    2
    11    11    12    2
    12    10    12    1
