@<TRIPOS>MOLECULE
/home/cewinharhar/GITHUB/reincatalyze/data/processed/docking_pred/2023-Apr-25-2248_maxeplen10_maxtrainstep1000_exh16_gamma099_lrac3e-4_lrcr1e-3/54a2e3ceee1b2a6ac8591f20fd198e2f201bb612_ligand_2.pdbqt
 12 12 0 0 0
SMALL
GASTEIGER

@<TRIPOS>ATOM
      1  C          8.1520   -0.8900   -1.9560 C.3     1  UNL1        0.1270
      2  C          8.3110   -2.0050   -2.9060 C.2     1  UNL1        0.3030
      3  O          9.4590   -2.4920   -3.0920 O.2     1  UNL1       -0.2520
      4  O          7.2260   -2.5480   -3.6100 O.3     1  UNL1       -0.4810
      5  H          6.4220   -2.8670   -3.0880 H       1  UNL1        0.2960
      6  C          7.6260   -1.3530   -0.6090 C.3     1  UNL1        0.0470
      7  C          6.6910   -0.3540   -0.0300 C.2     1  UNL1       -0.0470
      8  C          6.3150    0.7680   -0.7560 C.2     1  UNL1        0.0040
      9  C          6.1590   -0.4740    1.2410 C.2     1  UNL1        0.0040
     10  C          5.4600    1.7160   -0.2440 C.2     1  UNL1        0.0000
     11  C          5.3020    0.4770    1.7520 C.2     1  UNL1        0.0000
     12  C          4.9360    1.5870    1.0260 C.2     1  UNL1        0.0000
@<TRIPOS>BOND
     1     4     5    1
     2     4     2    1
     3     3     2    2
     4     2     1    1
     5     1     6    1
     6     8    10    1
     7     8     7    2
     8     6     7    1
     9    10    12    2
    10     7     9    1
    11    12    11    1
    12     9    11    2
