@<TRIPOS>MOLECULE
/home/cewinharhar/GITHUB/reincatalyze/data/processed/docking_pred/2023-Apr-25-2248_maxeplen10_maxtrainstep1000_exh16_gamma099_lrac3e-4_lrcr1e-3/54a2e3ceee1b2a6ac8591f20fd198e2f201bb612_ligand_2.pdbqt
 12 12 0 0 0
SMALL
GASTEIGER

@<TRIPOS>ATOM
      1  C          4.9840    1.7730    0.7320 C.3     1  UNL1        0.1270
      2  C          4.4490    1.1040    1.9320 C.2     1  UNL1        0.3030
      3  O          5.1260    0.1900    2.4750 O.2     1  UNL1       -0.2520
      4  O          3.2120    1.4510    2.4920 O.3     1  UNL1       -0.4810
      5  H          2.6460    0.7210    2.9040 H       1  UNL1        0.2960
      6  C          6.4980    1.8830    0.7630 C.3     1  UNL1        0.0470
      7  C          7.1120    1.0790   -0.3260 C.2     1  UNL1       -0.0470
      8  C          8.4520    1.2340   -0.6500 C.2     1  UNL1        0.0040
      9  C          6.3990    0.1570   -1.0700 C.2     1  UNL1        0.0040
     10  C          9.0480    0.5120   -1.6590 C.2     1  UNL1        0.0000
     11  C          6.9970   -0.5650   -2.0800 C.2     1  UNL1        0.0000
     12  C          8.3270   -0.4050   -2.3960 C.2     1  UNL1        0.0000
@<TRIPOS>BOND
     1    12    11    2
     2    12    10    1
     3    11     9    1
     4    10     8    2
     5     9     7    2
     6     8     7    1
     7     7     6    1
     8     1     6    1
     9     1     2    1
    10     2     3    2
    11     2     4    1
    12     4     5    1
