@<TRIPOS>MOLECULE
/home/cewinharhar/GITHUB/reincatalyze/data/processed/docking_pred/2023-Apr-25-2248_maxeplen10_maxtrainstep1000_exh16_gamma099_lrac3e-4_lrcr1e-3/54a2e3ceee1b2a6ac8591f20fd198e2f201bb612_ligand_2.pdbqt
 12 12 0 0 0
SMALL
GASTEIGER

@<TRIPOS>ATOM
      1  C          8.5180    0.6520   -1.6500 C.3     1  UNL1        0.1270
      2  C          9.6730    0.2810   -0.8140 C.2     1  UNL1        0.3030
      3  O          9.5010   -0.5130    0.1510 O.2     1  UNL1       -0.2520
      4  O         10.9610    0.7810   -1.0540 O.3     1  UNL1       -0.4810
      5  H         11.2980    0.8120   -2.0070 H       1  UNL1        0.2960
      6  C          7.3290   -0.2660   -1.4260 C.3     1  UNL1        0.0470
      7  C          6.4310    0.2730   -0.3710 C.2     1  UNL1       -0.0470
      8  C          5.8020    1.4990   -0.5350 C.2     1  UNL1        0.0040
      9  C          6.1830   -0.3950    0.8140 C.2     1  UNL1        0.0040
     10  C          4.9740    2.0300    0.4270 C.2     1  UNL1        0.0000
     11  C          5.3530    0.1380    1.7770 C.2     1  UNL1        0.0000
     12  C          4.7340    1.3550    1.6070 C.2     1  UNL1        0.0000
@<TRIPOS>BOND
     1     5     4    1
     2     1     6    1
     3     1     2    1
     4     6     7    1
     5     4     2    1
     6     2     3    2
     7     8     7    2
     8     8    10    1
     9     7     9    1
    10    10    12    2
    11     9    11    2
    12    12    11    1
