@<TRIPOS>MOLECULE
/home/cewinharhar/GITHUB/reincatalyze/data/processed/docking_pred/2023-Apr-25-2248_maxeplen10_maxtrainstep1000_exh16_gamma099_lrac3e-4_lrcr1e-3/54a2e3ceee1b2a6ac8591f20fd198e2f201bb612_ligand_2.pdbqt
 12 12 0 0 0
SMALL
GASTEIGER

@<TRIPOS>ATOM
      1  C          8.4080   -0.6650   -2.1250 C.3     1  UNL1        0.1270
      2  C          8.4080   -1.9230   -2.8920 C.2     1  UNL1        0.3030
      3  O          7.3060   -2.4270   -3.2420 O.2     1  UNL1       -0.2520
      4  O          9.5940   -2.5800   -3.2510 O.3     1  UNL1       -0.4810
      5  H         10.4760   -2.1230   -3.0620 H       1  UNL1        0.2960
      6  C          7.0480    0.0090   -2.1280 C.3     1  UNL1        0.0470
      7  C          6.4870    0.0840   -0.7540 C.2     1  UNL1       -0.0470
      8  C          5.8180    1.2210   -0.3230 C.2     1  UNL1        0.0040
      9  C          6.6040   -0.9480    0.1600 C.2     1  UNL1        0.0040
     10  C          5.2970    1.3250    0.9460 C.2     1  UNL1        0.0000
     11  C          6.0810   -0.8420    1.4310 C.2     1  UNL1        0.0000
     12  C          5.4200    0.2900    1.8510 C.2     1  UNL1        0.0000
@<TRIPOS>BOND
     1     4     5    1
     2     4     2    1
     3     3     2    2
     4     2     1    1
     5     6     1    1
     6     6     7    1
     7     7     8    2
     8     7     9    1
     9     8    10    1
    10     9    11    2
    11    10    12    2
    12    11    12    1
