@<TRIPOS>MOLECULE
/home/cewinharhar/GITHUB/reincatalyze/data/processed/docking_pred/2023-Apr-25-2248_maxeplen10_maxtrainstep1000_exh16_gamma099_lrac3e-4_lrcr1e-3/54a2e3ceee1b2a6ac8591f20fd198e2f201bb612_ligand_2.pdbqt
 12 12 0 0 0
SMALL
GASTEIGER

@<TRIPOS>ATOM
      1  C          8.4080   -0.6730   -2.1110 C.3     1  UNL1        0.1270
      2  C          8.4390   -1.9170   -2.8990 C.2     1  UNL1        0.3030
      3  O          9.5450   -2.4910   -3.0930 O.2     1  UNL1       -0.2520
      4  O          7.2790   -2.4880   -3.4410 O.3     1  UNL1       -0.4810
      5  H          6.5260   -1.8760   -3.7250 H       1  UNL1        0.2960
      6  C          7.0400   -0.0150   -2.1300 C.3     1  UNL1        0.0470
      7  C          6.4860    0.1020   -0.7550 C.2     1  UNL1       -0.0470
      8  C          6.6030   -0.9450    0.1470 C.2     1  UNL1        0.0040
      9  C          5.8280    1.2330   -0.3080 C.2     1  UNL1        0.0040
     10  C          6.0930   -0.8710    1.4230 C.2     1  UNL1        0.0000
     11  C          5.3180    1.3060    0.9700 C.2     1  UNL1        0.0000
     12  C          5.4370    0.2620    1.8590 C.2     1  UNL1        0.0000
@<TRIPOS>BOND
     1     5     4    1
     2     4     2    1
     3     3     2    2
     4     2     1    1
     5     6     1    1
     6     6     7    1
     7     7     9    2
     8     7     8    1
     9     9    11    1
    10     8    10    2
    11    11    12    2
    12    10    12    1
