MODEL 1
REMARK VINA RESULT:      -7.3      0.000      0.000
REMARK SMILES O=C(O)CCc1ccccc1
REMARK SMILES IDX 4 1 2 2 1 3 3 4 5 6 6 7 7 8 11 9 8 10 10 11 9 12
REMARK H PARENT 3 5
REMARK Flexibility Score: inf
ROOT
ATOM      1  C   UNL     1       8.408  -0.673  -2.111  1.00  0.00     0.127 C 
ENDROOT
BRANCH   1   2
ATOM      2  C   UNL     1       8.439  -1.917  -2.899  1.00  0.00     0.303 C 
ATOM      3  O   UNL     1       9.545  -2.491  -3.093  1.00  0.00    -0.252 OA
BRANCH   2   4
ATOM      4  O   UNL     1       7.279  -2.488  -3.441  1.00  0.00    -0.481 OA
ATOM      5  H   UNL     1       6.526  -1.876  -3.725  1.00  0.00     0.296 HD
ENDBRANCH   2   4
ENDBRANCH   1   2
BRANCH   1   6
ATOM      6  C   UNL     1       7.040  -0.015  -2.130  1.00  0.00     0.047 C 
BRANCH   6   7
ATOM      7  C   UNL     1       6.486   0.102  -0.755  1.00  0.00    -0.047 A 
ATOM      8  C   UNL     1       6.603  -0.945   0.147  1.00  0.00     0.004 A 
ATOM      9  C   UNL     1       5.828   1.233  -0.308  1.00  0.00     0.004 A 
ATOM     10  C   UNL     1       6.093  -0.871   1.423  1.00  0.00     0.000 A 
ATOM     11  C   UNL     1       5.318   1.306   0.970  1.00  0.00     0.000 A 
ATOM     12  C   UNL     1       5.437   0.262   1.859  1.00  0.00     0.000 A 
ENDBRANCH   6   7
ENDBRANCH   1   6
TORSDOF 4
ENDMDL
MODEL 2
REMARK VINA RESULT:      -7.3      0.088      1.723
REMARK SMILES O=C(O)CCc1ccccc1
REMARK SMILES IDX 4 1 2 2 1 3 3 4 5 6 6 7 7 8 11 9 8 10 10 11 9 12
REMARK H PARENT 3 5
REMARK Flexibility Score: inf
ROOT
ATOM      1  C   UNL     1       8.408  -0.665  -2.125  1.00  0.00     0.127 C 
ENDROOT
BRANCH   1   2
ATOM      2  C   UNL     1       8.408  -1.923  -2.892  1.00  0.00     0.303 C 
ATOM      3  O   UNL     1       7.306  -2.427  -3.242  1.00  0.00    -0.252 OA
BRANCH   2   4
ATOM      4  O   UNL     1       9.594  -2.580  -3.251  1.00  0.00    -0.481 OA
ATOM      5  H   UNL     1      10.476  -2.123  -3.062  1.00  0.00     0.296 HD
ENDBRANCH   2   4
ENDBRANCH   1   2
BRANCH   1   6
ATOM      6  C   UNL     1       7.048   0.009  -2.128  1.00  0.00     0.047 C 
BRANCH   6   7
ATOM      7  C   UNL     1       6.487   0.084  -0.754  1.00  0.00    -0.047 A 
ATOM      8  C   UNL     1       5.818   1.221  -0.323  1.00  0.00     0.004 A 
ATOM      9  C   UNL     1       6.604  -0.948   0.160  1.00  0.00     0.004 A 
ATOM     10  C   UNL     1       5.297   1.325   0.946  1.00  0.00     0.000 A 
ATOM     11  C   UNL     1       6.081  -0.842   1.431  1.00  0.00     0.000 A 
ATOM     12  C   UNL     1       5.420   0.290   1.851  1.00  0.00     0.000 A 
ENDBRANCH   6   7
ENDBRANCH   1   6
TORSDOF 4
ENDMDL
MODEL 3
REMARK VINA RESULT:      -7.1      0.601      1.611
REMARK SMILES O=C(O)CCc1ccccc1
REMARK SMILES IDX 4 1 2 2 1 3 3 4 5 6 6 7 7 8 11 9 8 10 10 11 9 12
REMARK H PARENT 3 5
REMARK Flexibility Score: inf
ROOT
ATOM      1  C   UNL     1       8.152  -0.890  -1.956  1.00  0.00     0.127 C 
ENDROOT
BRANCH   1   2
ATOM      2  C   UNL     1       8.311  -2.005  -2.906  1.00  0.00     0.303 C 
ATOM      3  O   UNL     1       9.459  -2.492  -3.092  1.00  0.00    -0.252 OA
BRANCH   2   4
ATOM      4  O   UNL     1       7.226  -2.548  -3.610  1.00  0.00    -0.481 OA
ATOM      5  H   UNL     1       6.422  -2.867  -3.088  1.00  0.00     0.296 HD
ENDBRANCH   2   4
ENDBRANCH   1   2
BRANCH   1   6
ATOM      6  C   UNL     1       7.626  -1.353  -0.609  1.00  0.00     0.047 C 
BRANCH   6   7
ATOM      7  C   UNL     1       6.691  -0.354  -0.030  1.00  0.00    -0.047 A 
ATOM      8  C   UNL     1       6.315   0.768  -0.756  1.00  0.00     0.004 A 
ATOM      9  C   UNL     1       6.159  -0.474   1.241  1.00  0.00     0.004 A 
ATOM     10  C   UNL     1       5.460   1.716  -0.244  1.00  0.00     0.000 A 
ATOM     11  C   UNL     1       5.302   0.477   1.752  1.00  0.00     0.000 A 
ATOM     12  C   UNL     1       4.936   1.587   1.026  1.00  0.00     0.000 A 
ENDBRANCH   6   7
ENDBRANCH   1   6
TORSDOF 4
ENDMDL
MODEL 4
REMARK VINA RESULT:      -6.8      3.401      5.104
REMARK SMILES O=C(O)CCc1ccccc1
REMARK SMILES IDX 4 1 2 2 1 3 3 4 5 6 6 7 7 8 11 9 8 10 10 11 9 12
REMARK H PARENT 3 5
REMARK Flexibility Score: inf
ROOT
ATOM      1  C   UNL     1       4.984   1.773   0.732  1.00  0.00     0.127 C 
ENDROOT
BRANCH   1   2
ATOM      2  C   UNL     1       4.449   1.104   1.932  1.00  0.00     0.303 C 
ATOM      3  O   UNL     1       5.126   0.190   2.475  1.00  0.00    -0.252 OA
BRANCH   2   4
ATOM      4  O   UNL     1       3.212   1.451   2.492  1.00  0.00    -0.481 OA
ATOM      5  H   UNL     1       2.646   0.721   2.904  1.00  0.00     0.296 HD
ENDBRANCH   2   4
ENDBRANCH   1   2
BRANCH   1   6
ATOM      6  C   UNL     1       6.498   1.883   0.763  1.00  0.00     0.047 C 
BRANCH   6   7
ATOM      7  C   UNL     1       7.112   1.079  -0.326  1.00  0.00    -0.047 A 
ATOM      8  C   UNL     1       8.452   1.234  -0.650  1.00  0.00     0.004 A 
ATOM      9  C   UNL     1       6.399   0.157  -1.070  1.00  0.00     0.004 A 
ATOM     10  C   UNL     1       9.048   0.512  -1.659  1.00  0.00     0.000 A 
ATOM     11  C   UNL     1       6.997  -0.565  -2.080  1.00  0.00     0.000 A 
ATOM     12  C   UNL     1       8.327  -0.405  -2.396  1.00  0.00     0.000 A 
ENDBRANCH   6   7
ENDBRANCH   1   6
TORSDOF 4
ENDMDL
MODEL 5
REMARK VINA RESULT:      -6.5      2.075      2.754
REMARK SMILES O=C(O)CCc1ccccc1
REMARK SMILES IDX 4 1 2 2 1 3 3 4 5 6 6 7 7 8 11 9 8 10 10 11 9 12
REMARK H PARENT 3 5
REMARK Flexibility Score: inf
ROOT
ATOM      1  C   UNL     1       8.518   0.652  -1.650  1.00  0.00     0.127 C 
ENDROOT
BRANCH   1   2
ATOM      2  C   UNL     1       9.673   0.281  -0.814  1.00  0.00     0.303 C 
ATOM      3  O   UNL     1       9.501  -0.513   0.151  1.00  0.00    -0.252 OA
BRANCH   2   4
ATOM      4  O   UNL     1      10.961   0.781  -1.054  1.00  0.00    -0.481 OA
ATOM      5  H   UNL     1      11.298   0.812  -2.007  1.00  0.00     0.296 HD
ENDBRANCH   2   4
ENDBRANCH   1   2
BRANCH   1   6
ATOM      6  C   UNL     1       7.329  -0.266  -1.426  1.00  0.00     0.047 C 
BRANCH   6   7
ATOM      7  C   UNL     1       6.431   0.273  -0.371  1.00  0.00    -0.047 A 
ATOM      8  C   UNL     1       5.802   1.499  -0.535  1.00  0.00     0.004 A 
ATOM      9  C   UNL     1       6.183  -0.395   0.814  1.00  0.00     0.004 A 
ATOM     10  C   UNL     1       4.974   2.030   0.427  1.00  0.00     0.000 A 
ATOM     11  C   UNL     1       5.353   0.138   1.777  1.00  0.00     0.000 A 
ATOM     12  C   UNL     1       4.734   1.355   1.607  1.00  0.00     0.000 A 
ENDBRANCH   6   7
ENDBRANCH   1   6
TORSDOF 4
ENDMDL
