@<TRIPOS>MOLECULE
/home/cewinharhar/GITHUB/reincatalyze/data/processed/docking_pred/2023-Apr-25-2248_maxeplen10_maxtrainstep1000_exh16_gamma099_lrac3e-4_lrcr1e-3/54c3cf531f582f2d935f1daccafc2f163e83168d_ligand_2.pdbqt
 12 12 0 0 0
SMALL
GASTEIGER

@<TRIPOS>ATOM
      1  C          8.3960   -0.6570   -2.1370 C.3     1  UNL1        0.1270
      2  C          8.4290   -1.9130   -2.9080 C.2     1  UNL1        0.3030
      3  O          9.5340   -2.4930   -3.0880 O.2     1  UNL1       -0.2520
      4  O          7.2700   -2.4880   -3.4500 O.3     1  UNL1       -0.4810
      5  H          6.5170   -2.7390   -2.8230 H       1  UNL1        0.2960
      6  C          7.0140   -0.0310   -2.1190 C.3     1  UNL1        0.0470
      7  C          6.4820    0.0480   -0.7340 C.2     1  UNL1       -0.0470
      8  C          6.6220   -1.0220    0.1400 C.2     1  UNL1        0.0040
      9  C          5.8230    1.1620   -0.2470 C.2     1  UNL1        0.0040
     10  C          6.1320   -0.9840    1.4250 C.2     1  UNL1        0.0000
     11  C          5.3330    1.1980    1.0410 C.2     1  UNL1        0.0000
     12  C          5.4750    0.1320    1.9010 C.2     1  UNL1        0.0000
@<TRIPOS>BOND
     1     4     2    1
     2     4     5    1
     3     3     2    2
     4     2     1    1
     5     1     6    1
     6     6     7    1
     7     7     9    2
     8     7     8    1
     9     9    11    1
    10     8    10    2
    11    11    12    2
    12    10    12    1
