@<TRIPOS>MOLECULE
/home/cewinharhar/GITHUB/reincatalyze/data/processed/docking_pred/2023-Apr-25-2248_maxeplen10_maxtrainstep1000_exh16_gamma099_lrac3e-4_lrcr1e-3/54c3cf531f582f2d935f1daccafc2f163e83168d_ligand_2.pdbqt
 12 12 0 0 0
SMALL
GASTEIGER

@<TRIPOS>ATOM
      1  C          4.9980    1.7620    0.7230 C.3     1  UNL1        0.1270
      2  C          4.5130    1.0890    1.9420 C.2     1  UNL1        0.3030
      3  O          5.2330    0.2060    2.4820 O.2     1  UNL1       -0.2520
      4  O          3.2760    1.3990    2.5250 O.3     1  UNL1       -0.4810
      5  H          2.7210    0.6470    2.9110 H       1  UNL1        0.2960
      6  C          6.5070    1.9280    0.7220 C.3     1  UNL1        0.0470
      7  C          7.1340    1.1000   -0.3410 C.2     1  UNL1       -0.0470
      8  C          8.4690    1.2710   -0.6760 C.2     1  UNL1        0.0040
      9  C          6.4370    0.1380   -1.0490 C.2     1  UNL1        0.0040
     10  C          9.0760    0.5270   -1.6630 C.2     1  UNL1        0.0000
     11  C          7.0450   -0.6060   -2.0360 C.2     1  UNL1        0.0000
     12  C          8.3700   -0.4300   -2.3640 C.2     1  UNL1        0.0000
@<TRIPOS>BOND
     1    12    11    2
     2    12    10    1
     3    11     9    1
     4    10     8    2
     5     9     7    2
     6     8     7    1
     7     7     6    1
     8     6     1    1
     9     1     2    1
    10     2     3    2
    11     2     4    1
    12     4     5    1
