@<TRIPOS>MOLECULE
/home/cewinharhar/GITHUB/reincatalyze/data/processed/docking_pred/2023-Apr-25-2248_maxeplen10_maxtrainstep1000_exh16_gamma099_lrac3e-4_lrcr1e-3/54c3cf531f582f2d935f1daccafc2f163e83168d_ligand_2.pdbqt
 12 12 0 0 0
SMALL
GASTEIGER

@<TRIPOS>ATOM
      1  C          5.4570    2.9010    0.0590 C.3     1  UNL1        0.1270
      2  C          6.2430    3.8750    0.8350 C.2     1  UNL1        0.3030
      3  O          6.9040    4.7570    0.2220 O.2     1  UNL1       -0.2520
      4  O          6.2820    3.8580    2.2370 O.3     1  UNL1       -0.4810
      5  H          6.2180    4.7360    2.7340 H       1  UNL1        0.2960
      6  C          4.8580    1.8170    0.9360 C.3     1  UNL1        0.0470
      7  C          5.7160    0.6030    0.9450 C.2     1  UNL1       -0.0470
      8  C          5.7120   -0.2590    2.0320 C.2     1  UNL1        0.0040
      9  C          6.5570    0.2750   -0.1020 C.2     1  UNL1        0.0040
     10  C          6.5020   -1.3840    2.0750 C.2     1  UNL1        0.0000
     11  C          7.3490   -0.8530   -0.0580 C.2     1  UNL1        0.0000
     12  C          7.3400   -1.7030    1.0250 C.2     1  UNL1        0.0000
@<TRIPOS>BOND
     1     9    11    1
     2     9     7    2
     3    11    12    2
     4     1     2    1
     5     1     6    1
     6     3     2    2
     7     2     4    1
     8     6     7    1
     9     7     8    1
    10    12    10    1
    11     8    10    2
    12     4     5    1
