@<TRIPOS>MOLECULE
/home/cewinharhar/GITHUB/reincatalyze/data/processed/docking_pred/2023-Apr-25-2248_maxeplen10_maxtrainstep1000_exh16_gamma099_lrac3e-4_lrcr1e-3/54c3cf531f582f2d935f1daccafc2f163e83168d_ligand_2.pdbqt
 12 12 0 0 0
SMALL
GASTEIGER

@<TRIPOS>ATOM
      1  C          8.4180   -0.6400   -2.1540 C.3     1  UNL1        0.1270
      2  C          8.4460   -1.9070   -2.9060 C.2     1  UNL1        0.3030
      3  O          9.5510   -2.4880   -3.0850 O.2     1  UNL1       -0.2520
      4  O          7.2840   -2.4900   -3.4310 O.3     1  UNL1       -0.4810
      5  H          6.5910   -1.8900   -3.8560 H       1  UNL1        0.2960
      6  C          7.0390   -0.0060   -2.1480 C.3     1  UNL1        0.0470
      7  C          6.4910    0.0650   -0.7680 C.2     1  UNL1       -0.0470
      8  C          5.8300    1.2020   -0.3270 C.2     1  UNL1        0.0040
      9  C          6.6130   -0.9710    0.1400 C.2     1  UNL1        0.0040
     10  C          5.3210    1.3030    0.9480 C.2     1  UNL1        0.0000
     11  C          6.1020   -0.8690    1.4160 C.2     1  UNL1        0.0000
     12  C          5.4490    0.2640    1.8470 C.2     1  UNL1        0.0000
@<TRIPOS>BOND
     1     5     4    1
     2     4     2    1
     3     3     2    2
     4     2     1    1
     5     1     6    1
     6     6     7    1
     7     7     8    2
     8     7     9    1
     9     8    10    1
    10     9    11    2
    11    10    12    2
    12    11    12    1
