MODEL 1
REMARK VINA RESULT:      -7.3      0.000      0.000
REMARK SMILES O=C(O)CCc1ccccc1
REMARK SMILES IDX 4 1 2 2 1 3 3 4 5 6 6 7 7 8 11 9 8 10 10 11 9 12
REMARK H PARENT 3 5
REMARK Flexibility Score: inf
ROOT
ATOM      1  C   UNL     1       8.418  -0.640  -2.154  1.00  0.00     0.127 C 
ENDROOT
BRANCH   1   2
ATOM      2  C   UNL     1       8.446  -1.907  -2.906  1.00  0.00     0.303 C 
ATOM      3  O   UNL     1       9.551  -2.488  -3.085  1.00  0.00    -0.252 OA
BRANCH   2   4
ATOM      4  O   UNL     1       7.284  -2.490  -3.431  1.00  0.00    -0.481 OA
ATOM      5  H   UNL     1       6.591  -1.890  -3.856  1.00  0.00     0.296 HD
ENDBRANCH   2   4
ENDBRANCH   1   2
BRANCH   1   6
ATOM      6  C   UNL     1       7.039  -0.006  -2.148  1.00  0.00     0.047 C 
BRANCH   6   7
ATOM      7  C   UNL     1       6.491   0.065  -0.768  1.00  0.00    -0.047 A 
ATOM      8  C   UNL     1       5.830   1.202  -0.327  1.00  0.00     0.004 A 
ATOM      9  C   UNL     1       6.613  -0.971   0.140  1.00  0.00     0.004 A 
ATOM     10  C   UNL     1       5.321   1.303   0.948  1.00  0.00     0.000 A 
ATOM     11  C   UNL     1       6.102  -0.869   1.416  1.00  0.00     0.000 A 
ATOM     12  C   UNL     1       5.449   0.264   1.847  1.00  0.00     0.000 A 
ENDBRANCH   6   7
ENDBRANCH   1   6
TORSDOF 4
ENDMDL
MODEL 2
REMARK VINA RESULT:      -7.3      0.081      1.422
REMARK SMILES O=C(O)CCc1ccccc1
REMARK SMILES IDX 4 1 2 2 1 3 3 4 5 6 6 7 7 8 11 9 8 10 10 11 9 12
REMARK H PARENT 3 5
REMARK Flexibility Score: inf
ROOT
ATOM      1  C   UNL     1       8.396  -0.657  -2.137  1.00  0.00     0.127 C 
ENDROOT
BRANCH   1   2
ATOM      2  C   UNL     1       8.429  -1.913  -2.908  1.00  0.00     0.303 C 
ATOM      3  O   UNL     1       9.534  -2.493  -3.088  1.00  0.00    -0.252 OA
BRANCH   2   4
ATOM      4  O   UNL     1       7.270  -2.488  -3.450  1.00  0.00    -0.481 OA
ATOM      5  H   UNL     1       6.517  -2.739  -2.823  1.00  0.00     0.296 HD
ENDBRANCH   2   4
ENDBRANCH   1   2
BRANCH   1   6
ATOM      6  C   UNL     1       7.014  -0.031  -2.119  1.00  0.00     0.047 C 
BRANCH   6   7
ATOM      7  C   UNL     1       6.482   0.048  -0.734  1.00  0.00    -0.047 A 
ATOM      8  C   UNL     1       6.622  -1.022   0.140  1.00  0.00     0.004 A 
ATOM      9  C   UNL     1       5.823   1.162  -0.247  1.00  0.00     0.004 A 
ATOM     10  C   UNL     1       6.132  -0.984   1.425  1.00  0.00     0.000 A 
ATOM     11  C   UNL     1       5.333   1.198   1.041  1.00  0.00     0.000 A 
ATOM     12  C   UNL     1       5.475   0.132   1.901  1.00  0.00     0.000 A 
ENDBRANCH   6   7
ENDBRANCH   1   6
TORSDOF 4
ENDMDL
MODEL 3
REMARK VINA RESULT:      -6.8      3.391      5.064
REMARK SMILES O=C(O)CCc1ccccc1
REMARK SMILES IDX 4 1 2 2 1 3 3 4 5 6 6 7 7 8 11 9 8 10 10 11 9 12
REMARK H PARENT 3 5
REMARK Flexibility Score: inf
ROOT
ATOM      1  C   UNL     1       4.998   1.762   0.723  1.00  0.00     0.127 C 
ENDROOT
BRANCH   1   2
ATOM      2  C   UNL     1       4.513   1.089   1.942  1.00  0.00     0.303 C 
ATOM      3  O   UNL     1       5.233   0.206   2.482  1.00  0.00    -0.252 OA
BRANCH   2   4
ATOM      4  O   UNL     1       3.276   1.399   2.525  1.00  0.00    -0.481 OA
ATOM      5  H   UNL     1       2.721   0.647   2.911  1.00  0.00     0.296 HD
ENDBRANCH   2   4
ENDBRANCH   1   2
BRANCH   1   6
ATOM      6  C   UNL     1       6.507   1.928   0.722  1.00  0.00     0.047 C 
BRANCH   6   7
ATOM      7  C   UNL     1       7.134   1.100  -0.341  1.00  0.00    -0.047 A 
ATOM      8  C   UNL     1       8.469   1.271  -0.676  1.00  0.00     0.004 A 
ATOM      9  C   UNL     1       6.437   0.138  -1.049  1.00  0.00     0.004 A 
ATOM     10  C   UNL     1       9.076   0.527  -1.663  1.00  0.00     0.000 A 
ATOM     11  C   UNL     1       7.045  -0.606  -2.036  1.00  0.00     0.000 A 
ATOM     12  C   UNL     1       8.370  -0.430  -2.364  1.00  0.00     0.000 A 
ENDBRANCH   6   7
ENDBRANCH   1   6
TORSDOF 4
ENDMDL
MODEL 4
REMARK VINA RESULT:      -6.6      3.828      4.998
REMARK SMILES O=C(O)CCc1ccccc1
REMARK SMILES IDX 4 1 2 2 1 3 3 4 5 6 6 7 7 8 11 9 8 10 10 11 9 12
REMARK H PARENT 3 5
REMARK Flexibility Score: inf
ROOT
ATOM      1  C   UNL     1       5.457   2.901   0.059  1.00  0.00     0.127 C 
ENDROOT
BRANCH   1   2
ATOM      2  C   UNL     1       6.243   3.875   0.835  1.00  0.00     0.303 C 
ATOM      3  O   UNL     1       6.904   4.757   0.222  1.00  0.00    -0.252 OA
BRANCH   2   4
ATOM      4  O   UNL     1       6.282   3.858   2.237  1.00  0.00    -0.481 OA
ATOM      5  H   UNL     1       6.218   4.736   2.734  1.00  0.00     0.296 HD
ENDBRANCH   2   4
ENDBRANCH   1   2
BRANCH   1   6
ATOM      6  C   UNL     1       4.858   1.817   0.936  1.00  0.00     0.047 C 
BRANCH   6   7
ATOM      7  C   UNL     1       5.716   0.603   0.945  1.00  0.00    -0.047 A 
ATOM      8  C   UNL     1       5.712  -0.259   2.032  1.00  0.00     0.004 A 
ATOM      9  C   UNL     1       6.557   0.275  -0.102  1.00  0.00     0.004 A 
ATOM     10  C   UNL     1       6.502  -1.384   2.075  1.00  0.00     0.000 A 
ATOM     11  C   UNL     1       7.349  -0.853  -0.058  1.00  0.00     0.000 A 
ATOM     12  C   UNL     1       7.340  -1.703   1.025  1.00  0.00     0.000 A 
ENDBRANCH   6   7
ENDBRANCH   1   6
TORSDOF 4
ENDMDL
MODEL 5
REMARK VINA RESULT:      -6.6      1.929      2.265
REMARK SMILES O=C(O)CCc1ccccc1
REMARK SMILES IDX 4 1 2 2 1 3 3 4 5 6 6 7 7 8 11 9 8 10 10 11 9 12
REMARK H PARENT 3 5
REMARK Flexibility Score: inf
ROOT
ATOM      1  C   UNL     1       8.171   0.285  -2.098  1.00  0.00     0.127 C 
ENDROOT
BRANCH   1   2
ATOM      2  C   UNL     1       9.351   0.378  -1.220  1.00  0.00     0.303 C 
ATOM      3  O   UNL     1       9.448  -0.410  -0.240  1.00  0.00    -0.252 OA
BRANCH   2   4
ATOM      4  O   UNL     1      10.373   1.313  -1.437  1.00  0.00    -0.481 OA
ATOM      5  H   UNL     1      10.746   1.414  -2.371  1.00  0.00     0.296 HD
ENDBRANCH   2   4
ENDBRANCH   1   2
BRANCH   1   6
ATOM      6  C   UNL     1       7.097  -0.621  -1.523  1.00  0.00     0.047 C 
BRANCH   6   7
ATOM      7  C   UNL     1       6.340   0.067  -0.445  1.00  0.00    -0.047 A 
ATOM      8  C   UNL     1       5.799   1.327  -0.654  1.00  0.00     0.004 A 
ATOM      9  C   UNL     1       6.145  -0.490   0.806  1.00  0.00     0.004 A 
ATOM     10  C   UNL     1       5.102   1.995   0.327  1.00  0.00     0.000 A 
ATOM     11  C   UNL     1       5.446   0.180   1.787  1.00  0.00     0.000 A 
ATOM     12  C   UNL     1       4.913   1.430   1.572  1.00  0.00     0.000 A 
ENDBRANCH   6   7
ENDBRANCH   1   6
TORSDOF 4
ENDMDL
