@<TRIPOS>MOLECULE
/home/cewinharhar/GITHUB/reincatalyze/data/processed/docking_pred/2023-Apr-25-2248_maxeplen10_maxtrainstep1000_exh16_gamma099_lrac3e-4_lrcr1e-3/54c3cf531f582f2d935f1daccafc2f163e83168d_ligand_2.pdbqt
 12 12 0 0 0
SMALL
GASTEIGER

@<TRIPOS>ATOM
      1  C          8.1710    0.2850   -2.0980 C.3     1  UNL1        0.1270
      2  C          9.3510    0.3780   -1.2200 C.2     1  UNL1        0.3030
      3  O          9.4480   -0.4100   -0.2400 O.2     1  UNL1       -0.2520
      4  O         10.3730    1.3130   -1.4370 O.3     1  UNL1       -0.4810
      5  H         10.7460    1.4140   -2.3710 H       1  UNL1        0.2960
      6  C          7.0970   -0.6210   -1.5230 C.3     1  UNL1        0.0470
      7  C          6.3400    0.0670   -0.4450 C.2     1  UNL1       -0.0470
      8  C          5.7990    1.3270   -0.6540 C.2     1  UNL1        0.0040
      9  C          6.1450   -0.4900    0.8060 C.2     1  UNL1        0.0040
     10  C          5.1020    1.9950    0.3270 C.2     1  UNL1        0.0000
     11  C          5.4460    0.1800    1.7870 C.2     1  UNL1        0.0000
     12  C          4.9130    1.4300    1.5720 C.2     1  UNL1        0.0000
@<TRIPOS>BOND
     1     5     4    1
     2     1     6    1
     3     1     2    1
     4     6     7    1
     5     4     2    1
     6     2     3    2
     7     8     7    2
     8     8    10    1
     9     7     9    1
    10    10    12    2
    11     9    11    2
    12    12    11    1
