@<TRIPOS>MOLECULE
/home/cewinharhar/GITHUB/reincatalyze/data/processed/docking_pred/2023-Apr-25-2248_maxeplen10_maxtrainstep1000_exh16_gamma099_lrac3e-4_lrcr1e-3/551c5941f3bf749be32b1159c48b101be233bdbe_ligand_2.pdbqt
 12 12 0 0 0
SMALL
GASTEIGER

@<TRIPOS>ATOM
      1  C          4.9810    1.7940    0.7220 C.3     1  UNL1        0.1270
      2  C          4.4660    1.1150    1.9240 C.2     1  UNL1        0.3030
      3  O          5.1610    0.2120    2.4630 O.2     1  UNL1       -0.2520
      4  O          3.2260    1.4410    2.4930 O.3     1  UNL1       -0.4810
      5  H          3.0890    2.3770    2.8490 H       1  UNL1        0.2960
      6  C          6.4940    1.9260    0.7420 C.3     1  UNL1        0.0470
      7  C          7.1140    1.1130   -0.3360 C.2     1  UNL1       -0.0470
      8  C          8.4670    1.2300   -0.6220 C.2     1  UNL1        0.0040
      9  C          6.3950    0.2190   -1.1080 C.2     1  UNL1        0.0040
     10  C          9.0690    0.5000   -1.6200 C.2     1  UNL1        0.0000
     11  C          6.9990   -0.5120   -2.1080 C.2     1  UNL1        0.0000
     12  C          8.3410   -0.3890   -2.3860 C.2     1  UNL1        0.0000
@<TRIPOS>BOND
     1    12    11    2
     2    12    10    1
     3    11     9    1
     4    10     8    2
     5     9     7    2
     6     8     7    1
     7     7     6    1
     8     1     6    1
     9     1     2    1
    10     2     3    2
    11     2     4    1
    12     4     5    1
