@<TRIPOS>MOLECULE
/home/cewinharhar/GITHUB/reincatalyze/data/processed/docking_pred/2023-Apr-25-2248_maxeplen10_maxtrainstep1000_exh16_gamma099_lrac3e-4_lrcr1e-3/551c5941f3bf749be32b1159c48b101be233bdbe_ligand_2.pdbqt
 12 12 0 0 0
SMALL
GASTEIGER

@<TRIPOS>ATOM
      1  C          8.4040   -0.6530   -2.1350 C.3     1  UNL1        0.1270
      2  C          8.4390   -1.9130   -2.8980 C.2     1  UNL1        0.3030
      3  O          9.5460   -2.4880   -3.0790 O.2     1  UNL1       -0.2520
      4  O          7.2810   -2.4970   -3.4310 O.3     1  UNL1       -0.4810
      5  H          7.3290   -2.9160   -4.3500 H       1  UNL1        0.2960
      6  C          7.0270   -0.0130   -2.1460 C.3     1  UNL1        0.0470
      7  C          6.4820    0.1020   -0.7680 C.2     1  UNL1       -0.0470
      8  C          6.6010   -0.9480    0.1300 C.2     1  UNL1        0.0040
      9  C          5.8300    1.2340   -0.3140 C.2     1  UNL1        0.0040
     10  C          6.0970   -0.8770    1.4090 C.2     1  UNL1        0.0000
     11  C          5.3270    1.3040    0.9680 C.2     1  UNL1        0.0000
     12  C          5.4470    0.2570    1.8530 C.2     1  UNL1        0.0000
@<TRIPOS>BOND
     1     5     4    1
     2     4     2    1
     3     3     2    2
     4     2     1    1
     5     6     1    1
     6     6     7    1
     7     7     9    2
     8     7     8    1
     9     9    11    1
    10     8    10    2
    11    11    12    2
    12    10    12    1
