@<TRIPOS>MOLECULE
/home/cewinharhar/GITHUB/reincatalyze/data/processed/docking_pred/2023-Apr-25-2248_maxeplen10_maxtrainstep1000_exh16_gamma099_lrac3e-4_lrcr1e-3/551c5941f3bf749be32b1159c48b101be233bdbe_ligand_2.pdbqt
 12 12 0 0 0
SMALL
GASTEIGER

@<TRIPOS>ATOM
      1  C          8.2780    0.4500   -1.9700 C.3     1  UNL1        0.1270
      2  C          9.4560    0.4180   -1.0860 C.2     1  UNL1        0.3030
      3  O          9.4850   -0.4090   -0.1340 O.2     1  UNL1       -0.2520
      4  O         10.5510    1.2750   -1.2660 O.3     1  UNL1       -0.4810
      5  H         11.4710    0.8690   -1.3750 H       1  UNL1        0.2960
      6  C          7.1660   -0.4580   -1.4780 C.3     1  UNL1        0.0470
      7  C          6.3520    0.2150   -0.4330 C.2     1  UNL1       -0.0470
      8  C          6.1320   -0.3950    0.7940 C.2     1  UNL1        0.0040
      9  C          5.7700    1.4550   -0.6200 C.2     1  UNL1        0.0040
     10  C          5.3740    0.1970    1.7790 C.2     1  UNL1        0.0000
     11  C          5.0110    2.0470    0.3670 C.2     1  UNL1        0.0000
     12  C          4.7970    1.4350    1.5810 C.2     1  UNL1        0.0000
@<TRIPOS>BOND
     1     1     6    1
     2     1     2    1
     3     6     7    1
     4     5     4    1
     5     4     2    1
     6     2     3    2
     7     9     7    2
     8     9    11    1
     9     7     8    1
    10    11    12    2
    11     8    10    2
    12    12    10    1
