@<TRIPOS>MOLECULE
/home/cewinharhar/GITHUB/reincatalyze/data/processed/docking_pred/2023-Apr-25-2248_maxeplen10_maxtrainstep1000_exh16_gamma099_lrac3e-4_lrcr1e-3/551c5941f3bf749be32b1159c48b101be233bdbe_ligand_2.pdbqt
 12 12 0 0 0
SMALL
GASTEIGER

@<TRIPOS>ATOM
      1  C          8.2970   -1.7710    1.2270 C.3     1  UNL1        0.1270
      2  C          8.7050   -2.9850    0.4980 C.2     1  UNL1        0.3030
      3  O          9.4670   -3.8130    1.0660 O.2     1  UNL1       -0.2520
      4  O          8.2720   -3.2540   -0.8080 O.3     1  UNL1       -0.4810
      5  H          8.7980   -2.8690   -1.5810 H       1  UNL1        0.2960
      6  C          6.7950   -1.7030    1.4340 C.3     1  UNL1        0.0470
      7  C          6.2400   -0.4320    0.8990 C.2     1  UNL1       -0.0470
      8  C          6.4950   -0.0440   -0.4090 C.2     1  UNL1        0.0040
      9  C          5.4630    0.4240    1.6570 C.2     1  UNL1        0.0040
     10  C          6.0050    1.1310   -0.9310 C.2     1  UNL1        0.0000
     11  C          4.9730    1.6000    1.1330 C.2     1  UNL1        0.0000
     12  C          5.2320    1.9790   -0.1650 C.2     1  UNL1        0.0000
@<TRIPOS>BOND
     1     5     4    1
     2    10     8    1
     3    10    12    2
     4     4     2    1
     5     8     7    2
     6    12    11    1
     7     2     3    2
     8     2     1    1
     9     7     6    1
    10     7     9    1
    11    11     9    2
    12     1     6    1
