@<TRIPOS>MOLECULE
/home/cewinharhar/GITHUB/reincatalyze/data/processed/docking_pred/2023-Apr-25-2248_maxeplen10_maxtrainstep1000_exh16_gamma099_lrac3e-4_lrcr1e-3/551c5941f3bf749be32b1159c48b101be233bdbe_ligand_2.pdbqt
 12 12 0 0 0
SMALL
GASTEIGER

@<TRIPOS>ATOM
      1  C          8.3880   -0.7660   -1.9820 C.3     1  UNL1        0.1270
      2  C          8.3860   -1.9560   -2.8520 C.2     1  UNL1        0.3030
      3  O          7.2840   -2.4130   -3.2600 O.2     1  UNL1       -0.2520
      4  O          9.5690   -2.5980   -3.2440 O.3     1  UNL1       -0.4810
      5  H          9.5010   -3.4530   -3.7780 H       1  UNL1        0.2960
      6  C          7.0750   -0.0070   -2.0440 C.3     1  UNL1        0.0470
      7  C          6.4660    0.1160   -0.6940 C.2     1  UNL1       -0.0470
      8  C          5.7650    1.2590   -0.3350 C.2     1  UNL1        0.0040
      9  C          6.5670   -0.8750    0.2650 C.2     1  UNL1        0.0040
     10  C          5.1990    1.4070    0.9100 C.2     1  UNL1        0.0000
     11  C          5.9980   -0.7250    1.5120 C.2     1  UNL1        0.0000
     12  C          5.3060    0.4130    1.8610 C.2     1  UNL1        0.0000
@<TRIPOS>BOND
     1     5     4    1
     2     3     2    2
     3     4     2    1
     4     2     1    1
     5     6     1    1
     6     6     7    1
     7     7     8    2
     8     7     9    1
     9     8    10    1
    10     9    11    2
    11    10    12    2
    12    11    12    1
