MODEL 1
REMARK VINA RESULT:      -7.3      0.000      0.000
REMARK SMILES O=C(O)CCc1ccccc1
REMARK SMILES IDX 4 1 2 2 1 3 3 4 5 6 6 7 7 8 11 9 8 10 10 11 9 12
REMARK H PARENT 3 5
REMARK Flexibility Score: inf
ROOT
ATOM      1  C   UNL     1       8.404  -0.653  -2.135  1.00  0.00     0.127 C 
ENDROOT
BRANCH   1   2
ATOM      2  C   UNL     1       8.439  -1.913  -2.898  1.00  0.00     0.303 C 
ATOM      3  O   UNL     1       9.546  -2.488  -3.079  1.00  0.00    -0.252 OA
BRANCH   2   4
ATOM      4  O   UNL     1       7.281  -2.497  -3.431  1.00  0.00    -0.481 OA
ATOM      5  H   UNL     1       7.329  -2.916  -4.350  1.00  0.00     0.296 HD
ENDBRANCH   2   4
ENDBRANCH   1   2
BRANCH   1   6
ATOM      6  C   UNL     1       7.027  -0.013  -2.146  1.00  0.00     0.047 C 
BRANCH   6   7
ATOM      7  C   UNL     1       6.482   0.102  -0.768  1.00  0.00    -0.047 A 
ATOM      8  C   UNL     1       6.601  -0.948   0.130  1.00  0.00     0.004 A 
ATOM      9  C   UNL     1       5.830   1.234  -0.314  1.00  0.00     0.004 A 
ATOM     10  C   UNL     1       6.097  -0.877   1.409  1.00  0.00     0.000 A 
ATOM     11  C   UNL     1       5.327   1.304   0.968  1.00  0.00     0.000 A 
ATOM     12  C   UNL     1       5.447   0.257   1.853  1.00  0.00     0.000 A 
ENDBRANCH   6   7
ENDBRANCH   1   6
TORSDOF 4
ENDMDL
MODEL 2
REMARK VINA RESULT:      -7.3      0.161      1.727
REMARK SMILES O=C(O)CCc1ccccc1
REMARK SMILES IDX 4 1 2 2 1 3 3 4 5 6 6 7 7 8 11 9 8 10 10 11 9 12
REMARK H PARENT 3 5
REMARK Flexibility Score: inf
ROOT
ATOM      1  C   UNL     1       8.388  -0.766  -1.982  1.00  0.00     0.127 C 
ENDROOT
BRANCH   1   2
ATOM      2  C   UNL     1       8.386  -1.956  -2.852  1.00  0.00     0.303 C 
ATOM      3  O   UNL     1       7.284  -2.413  -3.260  1.00  0.00    -0.252 OA
BRANCH   2   4
ATOM      4  O   UNL     1       9.569  -2.598  -3.244  1.00  0.00    -0.481 OA
ATOM      5  H   UNL     1       9.501  -3.453  -3.778  1.00  0.00     0.296 HD
ENDBRANCH   2   4
ENDBRANCH   1   2
BRANCH   1   6
ATOM      6  C   UNL     1       7.075  -0.007  -2.044  1.00  0.00     0.047 C 
BRANCH   6   7
ATOM      7  C   UNL     1       6.466   0.116  -0.694  1.00  0.00    -0.047 A 
ATOM      8  C   UNL     1       5.765   1.259  -0.335  1.00  0.00     0.004 A 
ATOM      9  C   UNL     1       6.567  -0.875   0.265  1.00  0.00     0.004 A 
ATOM     10  C   UNL     1       5.199   1.407   0.910  1.00  0.00     0.000 A 
ATOM     11  C   UNL     1       5.998  -0.725   1.512  1.00  0.00     0.000 A 
ATOM     12  C   UNL     1       5.306   0.413   1.861  1.00  0.00     0.000 A 
ENDBRANCH   6   7
ENDBRANCH   1   6
TORSDOF 4
ENDMDL
MODEL 3
REMARK VINA RESULT:      -6.8      3.397      5.093
REMARK SMILES O=C(O)CCc1ccccc1
REMARK SMILES IDX 4 1 2 2 1 3 3 4 5 6 6 7 7 8 11 9 8 10 10 11 9 12
REMARK H PARENT 3 5
REMARK Flexibility Score: inf
ROOT
ATOM      1  C   UNL     1       4.981   1.794   0.722  1.00  0.00     0.127 C 
ENDROOT
BRANCH   1   2
ATOM      2  C   UNL     1       4.466   1.115   1.924  1.00  0.00     0.303 C 
ATOM      3  O   UNL     1       5.161   0.212   2.463  1.00  0.00    -0.252 OA
BRANCH   2   4
ATOM      4  O   UNL     1       3.226   1.441   2.493  1.00  0.00    -0.481 OA
ATOM      5  H   UNL     1       3.089   2.377   2.849  1.00  0.00     0.296 HD
ENDBRANCH   2   4
ENDBRANCH   1   2
BRANCH   1   6
ATOM      6  C   UNL     1       6.494   1.926   0.742  1.00  0.00     0.047 C 
BRANCH   6   7
ATOM      7  C   UNL     1       7.114   1.113  -0.336  1.00  0.00    -0.047 A 
ATOM      8  C   UNL     1       8.467   1.230  -0.622  1.00  0.00     0.004 A 
ATOM      9  C   UNL     1       6.395   0.219  -1.108  1.00  0.00     0.004 A 
ATOM     10  C   UNL     1       9.069   0.500  -1.620  1.00  0.00     0.000 A 
ATOM     11  C   UNL     1       6.999  -0.512  -2.108  1.00  0.00     0.000 A 
ATOM     12  C   UNL     1       8.341  -0.389  -2.386  1.00  0.00     0.000 A 
ENDBRANCH   6   7
ENDBRANCH   1   6
TORSDOF 4
ENDMDL
MODEL 4
REMARK VINA RESULT:      -6.6      1.984      2.340
REMARK SMILES O=C(O)CCc1ccccc1
REMARK SMILES IDX 4 1 2 2 1 3 3 4 5 6 6 7 7 8 11 9 8 10 10 11 9 12
REMARK H PARENT 3 5
REMARK Flexibility Score: inf
ROOT
ATOM      1  C   UNL     1       8.278   0.450  -1.970  1.00  0.00     0.127 C 
ENDROOT
BRANCH   1   2
ATOM      2  C   UNL     1       9.456   0.418  -1.086  1.00  0.00     0.303 C 
ATOM      3  O   UNL     1       9.485  -0.409  -0.134  1.00  0.00    -0.252 OA
BRANCH   2   4
ATOM      4  O   UNL     1      10.551   1.275  -1.266  1.00  0.00    -0.481 OA
ATOM      5  H   UNL     1      11.471   0.869  -1.375  1.00  0.00     0.296 HD
ENDBRANCH   2   4
ENDBRANCH   1   2
BRANCH   1   6
ATOM      6  C   UNL     1       7.166  -0.458  -1.478  1.00  0.00     0.047 C 
BRANCH   6   7
ATOM      7  C   UNL     1       6.352   0.215  -0.433  1.00  0.00    -0.047 A 
ATOM      8  C   UNL     1       6.132  -0.395   0.794  1.00  0.00     0.004 A 
ATOM      9  C   UNL     1       5.770   1.455  -0.620  1.00  0.00     0.004 A 
ATOM     10  C   UNL     1       5.374   0.197   1.779  1.00  0.00     0.000 A 
ATOM     11  C   UNL     1       5.011   2.047   0.367  1.00  0.00     0.000 A 
ATOM     12  C   UNL     1       4.797   1.435   1.581  1.00  0.00     0.000 A 
ENDBRANCH   6   7
ENDBRANCH   1   6
TORSDOF 4
ENDMDL
MODEL 5
REMARK VINA RESULT:      -6.5      1.983      2.926
REMARK SMILES O=C(O)CCc1ccccc1
REMARK SMILES IDX 4 1 2 2 1 3 3 4 5 6 6 7 7 8 11 9 8 10 10 11 9 12
REMARK H PARENT 3 5
REMARK Flexibility Score: inf
ROOT
ATOM      1  C   UNL     1       8.297  -1.771   1.227  1.00  0.00     0.127 C 
ENDROOT
BRANCH   1   2
ATOM      2  C   UNL     1       8.705  -2.985   0.498  1.00  0.00     0.303 C 
ATOM      3  O   UNL     1       9.467  -3.813   1.066  1.00  0.00    -0.252 OA
BRANCH   2   4
ATOM      4  O   UNL     1       8.272  -3.254  -0.808  1.00  0.00    -0.481 OA
ATOM      5  H   UNL     1       8.798  -2.869  -1.581  1.00  0.00     0.296 HD
ENDBRANCH   2   4
ENDBRANCH   1   2
BRANCH   1   6
ATOM      6  C   UNL     1       6.795  -1.703   1.434  1.00  0.00     0.047 C 
BRANCH   6   7
ATOM      7  C   UNL     1       6.240  -0.432   0.899  1.00  0.00    -0.047 A 
ATOM      8  C   UNL     1       6.495  -0.044  -0.409  1.00  0.00     0.004 A 
ATOM      9  C   UNL     1       5.463   0.424   1.657  1.00  0.00     0.004 A 
ATOM     10  C   UNL     1       6.005   1.131  -0.931  1.00  0.00     0.000 A 
ATOM     11  C   UNL     1       4.973   1.600   1.133  1.00  0.00     0.000 A 
ATOM     12  C   UNL     1       5.232   1.979  -0.165  1.00  0.00     0.000 A 
ENDBRANCH   6   7
ENDBRANCH   1   6
TORSDOF 4
ENDMDL
