@<TRIPOS>MOLECULE
/home/cewinharhar/GITHUB/reincatalyze/data/processed/docking_pred/2023-Apr-25-2248_maxeplen10_maxtrainstep1000_exh16_gamma099_lrac3e-4_lrcr1e-3/551e6d8a024554ec32308953f7464105b503c37a_ligand_2.pdbqt
 12 12 0 0 0
SMALL
GASTEIGER

@<TRIPOS>ATOM
      1  C          8.2170   -1.6230    1.0070 C.3     1  UNL1        0.1270
      2  C          8.4960   -2.8500    0.2390 C.2     1  UNL1        0.3030
      3  O          9.0950   -3.8040    0.8060 O.2     1  UNL1       -0.2520
      4  O          8.1160   -2.9950   -1.1030 O.3     1  UNL1       -0.4810
      5  H          8.0700   -2.1690   -1.6840 H       1  UNL1        0.2960
      6  C          6.7470   -1.4880    1.3580 C.3     1  UNL1        0.0470
      7  C          6.1840   -0.2230    0.8170 C.2     1  UNL1       -0.0470
      8  C          6.4160    0.1480   -0.5000 C.2     1  UNL1        0.0040
      9  C          5.4200    0.6420    1.5780 C.2     1  UNL1        0.0040
     10  C          5.9180    1.3170   -1.0280 C.2     1  UNL1        0.0000
     11  C          4.9220    1.8130    1.0480 C.2     1  UNL1        0.0000
     12  C          5.1580    2.1760   -0.2590 C.2     1  UNL1        0.0000
@<TRIPOS>BOND
     1     5     4    1
     2     4     2    1
     3    10     8    1
     4    10    12    2
     5     8     7    2
     6    12    11    1
     7     2     3    2
     8     2     1    1
     9     7     6    1
    10     7     9    1
    11     1     6    1
    12    11     9    2
