@<TRIPOS>MOLECULE
/home/cewinharhar/GITHUB/reincatalyze/data/processed/docking_pred/2023-Apr-25-2248_maxeplen10_maxtrainstep1000_exh16_gamma099_lrac3e-4_lrcr1e-3/551e6d8a024554ec32308953f7464105b503c37a_ligand_2.pdbqt
 12 12 0 0 0
SMALL
GASTEIGER

@<TRIPOS>ATOM
      1  C          8.3120    0.0470   -2.1600 C.3     1  UNL1        0.1270
      2  C          9.4080    0.2990   -1.2070 C.2     1  UNL1        0.3030
      3  O          9.4830   -0.4010   -0.1610 O.2     1  UNL1       -0.2520
      4  O         10.3730    1.2930   -1.4230 O.3     1  UNL1       -0.4810
      5  H         11.1680    1.3380   -0.8000 H       1  UNL1        0.2960
      6  C          7.1670   -0.7230   -1.5270 C.3     1  UNL1        0.0470
      7  C          6.3820    0.1460   -0.6120 C.2     1  UNL1       -0.0470
      8  C          5.8770    1.3620   -1.0500 C.2     1  UNL1        0.0040
      9  C          6.1240   -0.1920    0.7040 C.2     1  UNL1        0.0040
     10  C          5.1560    2.1930   -0.2250 C.2     1  UNL1        0.0000
     11  C          5.4010    0.6420    1.5290 C.2     1  UNL1        0.0000
     12  C          4.9040    1.8470    1.0870 C.2     1  UNL1        0.0000
@<TRIPOS>BOND
     1     1     6    1
     2     1     2    1
     3     6     7    1
     4     4     2    1
     5     4     5    1
     6     2     3    2
     7     8     7    2
     8     8    10    1
     9     7     9    1
    10    10    12    2
    11     9    11    2
    12    12    11    1
