@<TRIPOS>MOLECULE
/home/cewinharhar/GITHUB/reincatalyze/data/processed/docking_pred/2023-Apr-25-2248_maxeplen10_maxtrainstep1000_exh16_gamma099_lrac3e-4_lrcr1e-3/551e6d8a024554ec32308953f7464105b503c37a_ligand_2.pdbqt
 12 12 0 0 0
SMALL
GASTEIGER

@<TRIPOS>ATOM
      1  C          5.0270    1.7080    0.6880 C.3     1  UNL1        0.1270
      2  C          4.4930    1.0840    1.9110 C.2     1  UNL1        0.3030
      3  O          5.1690    0.1890    2.4870 O.2     1  UNL1       -0.2520
      4  O          3.2550    1.4520    2.4590 O.3     1  UNL1       -0.4810
      5  H          2.6420    0.7240    2.7990 H       1  UNL1        0.2960
      6  C          6.5390    1.8480    0.7290 C.3     1  UNL1        0.0470
      7  C          7.1760    1.0570   -0.3560 C.2     1  UNL1       -0.0470
      8  C          6.4360    0.1460   -1.0960 C.2     1  UNL1        0.0040
      9  C          8.5160    1.1720   -0.6770 C.2     1  UNL1        0.0040
     10  C          6.9990   -0.6090   -2.0990 C.2     1  UNL1        0.0000
     11  C          9.0790    0.4150   -1.6820 C.2     1  UNL1        0.0000
     12  C          8.3390   -0.4880   -2.4110 C.2     1  UNL1        0.0000
@<TRIPOS>BOND
     1    12    10    2
     2    12    11    1
     3    10     8    1
     4    11     9    2
     5     8     7    2
     6     9     7    1
     7     7     6    1
     8     1     6    1
     9     1     2    1
    10     2     4    1
    11     2     3    2
    12     4     5    1
