@<TRIPOS>MOLECULE
/home/cewinharhar/GITHUB/reincatalyze/data/processed/docking_pred/2023-Apr-25-2248_maxeplen10_maxtrainstep1000_exh16_gamma099_lrac3e-4_lrcr1e-3/551e6d8a024554ec32308953f7464105b503c37a_ligand_2.pdbqt
 12 12 0 0 0
SMALL
GASTEIGER

@<TRIPOS>ATOM
      1  C          8.4400   -0.6910   -2.0900 C.3     1  UNL1        0.1270
      2  C          8.4550   -1.9280   -2.8920 C.2     1  UNL1        0.3030
      3  O          9.5540   -2.5070   -3.1040 O.2     1  UNL1       -0.2520
      4  O          7.2850   -2.4860   -3.4280 O.3     1  UNL1       -0.4810
      5  H          7.3590   -3.0620   -4.2550 H       1  UNL1        0.2960
      6  C          7.0930    0.0070   -2.1370 C.3     1  UNL1        0.0470
      7  C          6.5080    0.1270   -0.7770 C.2     1  UNL1       -0.0470
      8  C          6.6260   -0.9090    0.1390 C.2     1  UNL1        0.0040
      9  C          5.8170    1.2490   -0.3550 C.2     1  UNL1        0.0040
     10  C          6.0860   -0.8320    1.4020 C.2     1  UNL1        0.0000
     11  C          5.2770    1.3240    0.9110 C.2     1  UNL1        0.0000
     12  C          5.3980    0.2920    1.8130 C.2     1  UNL1        0.0000
@<TRIPOS>BOND
     1     5     4    1
     2     4     2    1
     3     3     2    2
     4     2     1    1
     5     6     1    1
     6     6     7    1
     7     7     9    2
     8     7     8    1
     9     9    11    1
    10     8    10    2
    11    11    12    2
    12    10    12    1
