@<TRIPOS>MOLECULE
/home/cewinharhar/GITHUB/reincatalyze/data/processed/docking_pred/2023-Apr-25-2248_maxeplen10_maxtrainstep1000_exh16_gamma099_lrac3e-4_lrcr1e-3/551e6d8a024554ec32308953f7464105b503c37a_ligand_2.pdbqt
 12 12 0 0 0
SMALL
GASTEIGER

@<TRIPOS>ATOM
      1  C          8.4220   -0.6490   -2.1330 C.3     1  UNL1        0.1270
      2  C          8.4320   -1.9110   -2.8940 C.2     1  UNL1        0.3030
      3  O          9.5270   -2.5120   -3.0690 O.2     1  UNL1       -0.2520
      4  O          7.2640   -2.4710   -3.4300 O.3     1  UNL1       -0.4810
      5  H          6.5140   -2.7210   -2.7990 H       1  UNL1        0.2960
      6  C          7.0470   -0.0050   -2.1090 C.3     1  UNL1        0.0470
      7  C          6.5030    0.0350   -0.7260 C.2     1  UNL1       -0.0470
      8  C          5.8570    1.1680   -0.2530 C.2     1  UNL1        0.0040
      9  C          6.6130   -1.0270    0.1530 C.2     1  UNL1        0.0040
     10  C          5.3520    1.2400    1.0250 C.2     1  UNL1        0.0000
     11  C          6.1060   -0.9530    1.4320 C.2     1  UNL1        0.0000
     12  C          5.4680    0.1750    1.8960 C.2     1  UNL1        0.0000
@<TRIPOS>BOND
     1     4     2    1
     2     4     5    1
     3     3     2    2
     4     2     1    1
     5     1     6    1
     6     6     7    1
     7     7     8    2
     8     7     9    1
     9     8    10    1
    10     9    11    2
    11    10    12    2
    12    11    12    1
