MODEL 1
REMARK VINA RESULT:      -7.3      0.000      0.000
REMARK SMILES O=C(O)CCc1ccccc1
REMARK SMILES IDX 4 1 2 2 1 3 3 4 5 6 6 7 7 8 11 9 8 10 10 11 9 12
REMARK H PARENT 3 5
REMARK Flexibility Score: inf
ROOT
ATOM      1  C   UNL     1       8.440  -0.691  -2.090  1.00  0.00     0.127 C 
ENDROOT
BRANCH   1   2
ATOM      2  C   UNL     1       8.455  -1.928  -2.892  1.00  0.00     0.303 C 
ATOM      3  O   UNL     1       9.554  -2.507  -3.104  1.00  0.00    -0.252 OA
BRANCH   2   4
ATOM      4  O   UNL     1       7.285  -2.486  -3.428  1.00  0.00    -0.481 OA
ATOM      5  H   UNL     1       7.359  -3.062  -4.255  1.00  0.00     0.296 HD
ENDBRANCH   2   4
ENDBRANCH   1   2
BRANCH   1   6
ATOM      6  C   UNL     1       7.093   0.007  -2.137  1.00  0.00     0.047 C 
BRANCH   6   7
ATOM      7  C   UNL     1       6.508   0.127  -0.777  1.00  0.00    -0.047 A 
ATOM      8  C   UNL     1       6.626  -0.909   0.139  1.00  0.00     0.004 A 
ATOM      9  C   UNL     1       5.817   1.249  -0.355  1.00  0.00     0.004 A 
ATOM     10  C   UNL     1       6.086  -0.832   1.402  1.00  0.00     0.000 A 
ATOM     11  C   UNL     1       5.277   1.324   0.911  1.00  0.00     0.000 A 
ATOM     12  C   UNL     1       5.398   0.292   1.813  1.00  0.00     0.000 A 
ENDBRANCH   6   7
ENDBRANCH   1   6
TORSDOF 4
ENDMDL
MODEL 2
REMARK VINA RESULT:      -7.3      0.105      1.424
REMARK SMILES O=C(O)CCc1ccccc1
REMARK SMILES IDX 4 1 2 2 1 3 3 4 5 6 6 7 7 8 11 9 8 10 10 11 9 12
REMARK H PARENT 3 5
REMARK Flexibility Score: inf
ROOT
ATOM      1  C   UNL     1       8.422  -0.649  -2.133  1.00  0.00     0.127 C 
ENDROOT
BRANCH   1   2
ATOM      2  C   UNL     1       8.432  -1.911  -2.894  1.00  0.00     0.303 C 
ATOM      3  O   UNL     1       9.527  -2.512  -3.069  1.00  0.00    -0.252 OA
BRANCH   2   4
ATOM      4  O   UNL     1       7.264  -2.471  -3.430  1.00  0.00    -0.481 OA
ATOM      5  H   UNL     1       6.514  -2.721  -2.799  1.00  0.00     0.296 HD
ENDBRANCH   2   4
ENDBRANCH   1   2
BRANCH   1   6
ATOM      6  C   UNL     1       7.047  -0.005  -2.109  1.00  0.00     0.047 C 
BRANCH   6   7
ATOM      7  C   UNL     1       6.503   0.035  -0.726  1.00  0.00    -0.047 A 
ATOM      8  C   UNL     1       5.857   1.168  -0.253  1.00  0.00     0.004 A 
ATOM      9  C   UNL     1       6.613  -1.027   0.153  1.00  0.00     0.004 A 
ATOM     10  C   UNL     1       5.352   1.240   1.025  1.00  0.00     0.000 A 
ATOM     11  C   UNL     1       6.106  -0.953   1.432  1.00  0.00     0.000 A 
ATOM     12  C   UNL     1       5.468   0.175   1.896  1.00  0.00     0.000 A 
ENDBRANCH   6   7
ENDBRANCH   1   6
TORSDOF 4
ENDMDL
MODEL 3
REMARK VINA RESULT:      -6.8      3.380      5.071
REMARK SMILES O=C(O)CCc1ccccc1
REMARK SMILES IDX 4 1 2 2 1 3 3 4 5 6 6 7 7 8 11 9 8 10 10 11 9 12
REMARK H PARENT 3 5
REMARK Flexibility Score: inf
ROOT
ATOM      1  C   UNL     1       5.027   1.708   0.688  1.00  0.00     0.127 C 
ENDROOT
BRANCH   1   2
ATOM      2  C   UNL     1       4.493   1.084   1.911  1.00  0.00     0.303 C 
ATOM      3  O   UNL     1       5.169   0.189   2.487  1.00  0.00    -0.252 OA
BRANCH   2   4
ATOM      4  O   UNL     1       3.255   1.452   2.459  1.00  0.00    -0.481 OA
ATOM      5  H   UNL     1       2.642   0.724   2.799  1.00  0.00     0.296 HD
ENDBRANCH   2   4
ENDBRANCH   1   2
BRANCH   1   6
ATOM      6  C   UNL     1       6.539   1.848   0.729  1.00  0.00     0.047 C 
BRANCH   6   7
ATOM      7  C   UNL     1       7.176   1.057  -0.356  1.00  0.00    -0.047 A 
ATOM      8  C   UNL     1       6.436   0.146  -1.096  1.00  0.00     0.004 A 
ATOM      9  C   UNL     1       8.516   1.172  -0.677  1.00  0.00     0.004 A 
ATOM     10  C   UNL     1       6.999  -0.609  -2.099  1.00  0.00     0.000 A 
ATOM     11  C   UNL     1       9.079   0.415  -1.682  1.00  0.00     0.000 A 
ATOM     12  C   UNL     1       8.339  -0.488  -2.411  1.00  0.00     0.000 A 
ENDBRANCH   6   7
ENDBRANCH   1   6
TORSDOF 4
ENDMDL
MODEL 4
REMARK VINA RESULT:      -6.6      1.955      2.668
REMARK SMILES O=C(O)CCc1ccccc1
REMARK SMILES IDX 4 1 2 2 1 3 3 4 5 6 6 7 7 8 11 9 8 10 10 11 9 12
REMARK H PARENT 3 5
REMARK Flexibility Score: inf
ROOT
ATOM      1  C   UNL     1       8.312   0.047  -2.160  1.00  0.00     0.127 C 
ENDROOT
BRANCH   1   2
ATOM      2  C   UNL     1       9.408   0.299  -1.207  1.00  0.00     0.303 C 
ATOM      3  O   UNL     1       9.483  -0.401  -0.161  1.00  0.00    -0.252 OA
BRANCH   2   4
ATOM      4  O   UNL     1      10.373   1.293  -1.423  1.00  0.00    -0.481 OA
ATOM      5  H   UNL     1      11.168   1.338  -0.800  1.00  0.00     0.296 HD
ENDBRANCH   2   4
ENDBRANCH   1   2
BRANCH   1   6
ATOM      6  C   UNL     1       7.167  -0.723  -1.527  1.00  0.00     0.047 C 
BRANCH   6   7
ATOM      7  C   UNL     1       6.382   0.146  -0.612  1.00  0.00    -0.047 A 
ATOM      8  C   UNL     1       5.877   1.362  -1.050  1.00  0.00     0.004 A 
ATOM      9  C   UNL     1       6.124  -0.192   0.704  1.00  0.00     0.004 A 
ATOM     10  C   UNL     1       5.156   2.193  -0.225  1.00  0.00     0.000 A 
ATOM     11  C   UNL     1       5.401   0.642   1.529  1.00  0.00     0.000 A 
ATOM     12  C   UNL     1       4.904   1.847   1.087  1.00  0.00     0.000 A 
ENDBRANCH   6   7
ENDBRANCH   1   6
TORSDOF 4
ENDMDL
MODEL 5
REMARK VINA RESULT:      -6.6      1.872      2.807
REMARK SMILES O=C(O)CCc1ccccc1
REMARK SMILES IDX 4 1 2 2 1 3 3 4 5 6 6 7 7 8 11 9 8 10 10 11 9 12
REMARK H PARENT 3 5
REMARK Flexibility Score: inf
ROOT
ATOM      1  C   UNL     1       8.217  -1.623   1.007  1.00  0.00     0.127 C 
ENDROOT
BRANCH   1   2
ATOM      2  C   UNL     1       8.496  -2.850   0.239  1.00  0.00     0.303 C 
ATOM      3  O   UNL     1       9.095  -3.804   0.806  1.00  0.00    -0.252 OA
BRANCH   2   4
ATOM      4  O   UNL     1       8.116  -2.995  -1.103  1.00  0.00    -0.481 OA
ATOM      5  H   UNL     1       8.070  -2.169  -1.684  1.00  0.00     0.296 HD
ENDBRANCH   2   4
ENDBRANCH   1   2
BRANCH   1   6
ATOM      6  C   UNL     1       6.747  -1.488   1.358  1.00  0.00     0.047 C 
BRANCH   6   7
ATOM      7  C   UNL     1       6.184  -0.223   0.817  1.00  0.00    -0.047 A 
ATOM      8  C   UNL     1       6.416   0.148  -0.500  1.00  0.00     0.004 A 
ATOM      9  C   UNL     1       5.420   0.642   1.578  1.00  0.00     0.004 A 
ATOM     10  C   UNL     1       5.918   1.317  -1.028  1.00  0.00     0.000 A 
ATOM     11  C   UNL     1       4.922   1.813   1.048  1.00  0.00     0.000 A 
ATOM     12  C   UNL     1       5.158   2.176  -0.259  1.00  0.00     0.000 A 
ENDBRANCH   6   7
ENDBRANCH   1   6
TORSDOF 4
ENDMDL
