@<TRIPOS>MOLECULE
/home/cewinharhar/GITHUB/reincatalyze/data/processed/docking_pred/2023-Apr-25-2248_maxeplen10_maxtrainstep1000_exh16_gamma099_lrac3e-4_lrcr1e-3/55f9a48c22e019202c812c896c561d7470c53219_ligand_2.pdbqt
 12 12 0 0 0
SMALL
GASTEIGER

@<TRIPOS>ATOM
      1  C          8.4110   -0.6590   -2.1130 C.3     1  UNL1        0.1270
      2  C          8.4080   -1.9160   -2.8840 C.2     1  UNL1        0.3030
      3  O          7.3040   -2.4220   -3.2240 O.2     1  UNL1       -0.2520
      4  O          9.5920   -2.5690   -3.2550 O.3     1  UNL1       -0.4810
      5  H          9.9720   -2.3950   -4.1750 H       1  UNL1        0.2960
      6  C          7.0630    0.0370   -2.1450 C.3     1  UNL1        0.0470
      7  C          6.4880    0.1470   -0.7790 C.2     1  UNL1       -0.0470
      8  C          6.6020   -0.9010    0.1240 C.2     1  UNL1        0.0040
      9  C          5.8130    1.2710   -0.3390 C.2     1  UNL1        0.0040
     10  C          6.0720   -0.8330    1.3920 C.2     1  UNL1        0.0000
     11  C          5.2830    1.3370    0.9310 C.2     1  UNL1        0.0000
     12  C          5.3980    0.2930    1.8200 C.2     1  UNL1        0.0000
@<TRIPOS>BOND
     1     5     4    1
     2     4     2    1
     3     3     2    2
     4     2     1    1
     5     6     1    1
     6     6     7    1
     7     7     9    2
     8     7     8    1
     9     9    11    1
    10     8    10    2
    11    11    12    2
    12    10    12    1
