MODEL 1
REMARK VINA RESULT:      -7.3      0.000      0.000
REMARK SMILES O=C(O)CCc1ccccc1
REMARK SMILES IDX 4 1 2 2 1 3 3 4 5 6 6 7 7 8 11 9 8 10 10 11 9 12
REMARK H PARENT 3 5
REMARK Flexibility Score: inf
ROOT
ATOM      1  C   UNL     1       8.406  -0.729  -2.053  1.00  0.00     0.127 C 
ENDROOT
BRANCH   1   2
ATOM      2  C   UNL     1       8.434  -1.948  -2.880  1.00  0.00     0.303 C 
ATOM      3  O   UNL     1       9.537  -2.524  -3.085  1.00  0.00    -0.252 OA
BRANCH   2   4
ATOM      4  O   UNL     1       7.273  -2.493  -3.449  1.00  0.00    -0.481 OA
ATOM      5  H   UNL     1       7.333  -3.397  -3.896  1.00  0.00     0.296 HD
ENDBRANCH   2   4
ENDBRANCH   1   2
BRANCH   1   6
ATOM      6  C   UNL     1       7.052  -0.043  -2.087  1.00  0.00     0.047 C 
BRANCH   6   7
ATOM      7  C   UNL     1       6.468   0.052  -0.724  1.00  0.00    -0.047 A 
ATOM      8  C   UNL     1       5.799   1.199  -0.319  1.00  0.00     0.004 A 
ATOM      9  C   UNL     1       6.563  -0.969   0.204  1.00  0.00     0.004 A 
ATOM     10  C   UNL     1       5.257   1.322   0.940  1.00  0.00     0.000 A 
ATOM     11  C   UNL     1       6.019  -0.844   1.464  1.00  0.00     0.000 A 
ATOM     12  C   UNL     1       5.359   0.297   1.859  1.00  0.00     0.000 A 
ENDBRANCH   6   7
ENDBRANCH   1   6
TORSDOF 4
ENDMDL
MODEL 2
REMARK VINA RESULT:      -7.3      0.118      1.724
REMARK SMILES O=C(O)CCc1ccccc1
REMARK SMILES IDX 4 1 2 2 1 3 3 4 5 6 6 7 7 8 11 9 8 10 10 11 9 12
REMARK H PARENT 3 5
REMARK Flexibility Score: inf
ROOT
ATOM      1  C   UNL     1       8.411  -0.659  -2.113  1.00  0.00     0.127 C 
ENDROOT
BRANCH   1   2
ATOM      2  C   UNL     1       8.408  -1.916  -2.884  1.00  0.00     0.303 C 
ATOM      3  O   UNL     1       7.304  -2.422  -3.224  1.00  0.00    -0.252 OA
BRANCH   2   4
ATOM      4  O   UNL     1       9.592  -2.569  -3.255  1.00  0.00    -0.481 OA
ATOM      5  H   UNL     1       9.972  -2.395  -4.175  1.00  0.00     0.296 HD
ENDBRANCH   2   4
ENDBRANCH   1   2
BRANCH   1   6
ATOM      6  C   UNL     1       7.063   0.037  -2.145  1.00  0.00     0.047 C 
BRANCH   6   7
ATOM      7  C   UNL     1       6.488   0.147  -0.779  1.00  0.00    -0.047 A 
ATOM      8  C   UNL     1       6.602  -0.901   0.124  1.00  0.00     0.004 A 
ATOM      9  C   UNL     1       5.813   1.271  -0.339  1.00  0.00     0.004 A 
ATOM     10  C   UNL     1       6.072  -0.833   1.392  1.00  0.00     0.000 A 
ATOM     11  C   UNL     1       5.283   1.337   0.931  1.00  0.00     0.000 A 
ATOM     12  C   UNL     1       5.398   0.293   1.820  1.00  0.00     0.000 A 
ENDBRANCH   6   7
ENDBRANCH   1   6
TORSDOF 4
ENDMDL
MODEL 3
REMARK VINA RESULT:      -6.8      3.407      5.095
REMARK SMILES O=C(O)CCc1ccccc1
REMARK SMILES IDX 4 1 2 2 1 3 3 4 5 6 6 7 7 8 11 9 8 10 10 11 9 12
REMARK H PARENT 3 5
REMARK Flexibility Score: inf
ROOT
ATOM      1  C   UNL     1       4.993   1.744   0.704  1.00  0.00     0.127 C 
ENDROOT
BRANCH   1   2
ATOM      2  C   UNL     1       4.471   1.107   1.926  1.00  0.00     0.303 C 
ATOM      3  O   UNL     1       5.162   0.220   2.497  1.00  0.00    -0.252 OA
BRANCH   2   4
ATOM      4  O   UNL     1       3.230   1.454   2.479  1.00  0.00    -0.481 OA
ATOM      5  H   UNL     1       3.102   2.396   2.824  1.00  0.00     0.296 HD
ENDBRANCH   2   4
ENDBRANCH   1   2
BRANCH   1   6
ATOM      6  C   UNL     1       6.505   1.880   0.728  1.00  0.00     0.047 C 
BRANCH   6   7
ATOM      7  C   UNL     1       7.131   1.067  -0.347  1.00  0.00    -0.047 A 
ATOM      8  C   UNL     1       8.473   1.222  -0.660  1.00  0.00     0.004 A 
ATOM      9  C   UNL     1       6.425   0.137  -1.089  1.00  0.00     0.004 A 
ATOM     10  C   UNL     1       9.080   0.492  -1.657  1.00  0.00     0.000 A 
ATOM     11  C   UNL     1       7.034  -0.593  -2.087  1.00  0.00     0.000 A 
ATOM     12  C   UNL     1       8.367  -0.433  -2.393  1.00  0.00     0.000 A 
ENDBRANCH   6   7
ENDBRANCH   1   6
TORSDOF 4
ENDMDL
MODEL 4
REMARK VINA RESULT:      -6.6      2.040      2.506
REMARK SMILES O=C(O)CCc1ccccc1
REMARK SMILES IDX 4 1 2 2 1 3 3 4 5 6 6 7 7 8 11 9 8 10 10 11 9 12
REMARK H PARENT 3 5
REMARK Flexibility Score: inf
ROOT
ATOM      1  C   UNL     1       7.980  -2.327   0.728  1.00  0.00     0.127 C 
ENDROOT
BRANCH   1   2
ATOM      2  C   UNL     1       8.802  -3.467   0.285  1.00  0.00     0.303 C 
ATOM      3  O   UNL     1       9.685  -3.922   1.061  1.00  0.00    -0.252 OA
BRANCH   2   4
ATOM      4  O   UNL     1       8.635  -4.066  -0.972  1.00  0.00    -0.481 OA
ATOM      5  H   UNL     1       7.922  -3.703  -1.590  1.00  0.00     0.296 HD
ENDBRANCH   2   4
ENDBRANCH   1   2
BRANCH   1   6
ATOM      6  C   UNL     1       7.549  -1.446  -0.431  1.00  0.00     0.047 C 
BRANCH   6   7
ATOM      7  C   UNL     1       6.644  -0.362   0.032  1.00  0.00    -0.047 A 
ATOM      8  C   UNL     1       6.330   0.702  -0.802  1.00  0.00     0.004 A 
ATOM      9  C   UNL     1       6.082  -0.344   1.295  1.00  0.00     0.004 A 
ATOM     10  C   UNL     1       5.504   1.727  -0.399  1.00  0.00     0.000 A 
ATOM     11  C   UNL     1       5.255   0.683   1.697  1.00  0.00     0.000 A 
ATOM     12  C   UNL     1       4.949   1.735   0.865  1.00  0.00     0.000 A 
ENDBRANCH   6   7
ENDBRANCH   1   6
TORSDOF 4
ENDMDL
MODEL 5
REMARK VINA RESULT:      -6.6      1.986      2.665
REMARK SMILES O=C(O)CCc1ccccc1
REMARK SMILES IDX 4 1 2 2 1 3 3 4 5 6 6 7 7 8 11 9 8 10 10 11 9 12
REMARK H PARENT 3 5
REMARK Flexibility Score: inf
ROOT
ATOM      1  C   UNL     1       8.325   0.327  -1.917  1.00  0.00     0.127 C 
ENDROOT
BRANCH   1   2
ATOM      2  C   UNL     1       9.477   0.223  -1.004  1.00  0.00     0.303 C 
ATOM      3  O   UNL     1       9.399  -0.544  -0.005  1.00  0.00    -0.252 OA
BRANCH   2   4
ATOM      4  O   UNL     1      10.660   0.947  -1.207  1.00  0.00    -0.481 OA
ATOM      5  H   UNL     1      11.540   0.450  -1.189  1.00  0.00     0.296 HD
ENDBRANCH   2   4
ENDBRANCH   1   2
BRANCH   1   6
ATOM      6  C   UNL     1       7.155  -0.528  -1.465  1.00  0.00     0.047 C 
BRANCH   6   7
ATOM      7  C   UNL     1       6.352   0.173  -0.429  1.00  0.00    -0.047 A 
ATOM      8  C   UNL     1       6.138  -0.407   0.813  1.00  0.00     0.004 A 
ATOM      9  C   UNL     1       5.776   1.412  -0.640  1.00  0.00     0.004 A 
ATOM     10  C   UNL     1       5.391   0.212   1.789  1.00  0.00     0.000 A 
ATOM     11  C   UNL     1       5.028   2.031   0.338  1.00  0.00     0.000 A 
ATOM     12  C   UNL     1       4.819   1.448   1.568  1.00  0.00     0.000 A 
ENDBRANCH   6   7
ENDBRANCH   1   6
TORSDOF 4
ENDMDL
