@<TRIPOS>MOLECULE
/home/cewinharhar/GITHUB/reincatalyze/data/processed/docking_pred/2023-Apr-25-2248_maxeplen10_maxtrainstep1000_exh16_gamma099_lrac3e-4_lrcr1e-3/55f9a48c22e019202c812c896c561d7470c53219_ligand_2.pdbqt
 12 12 0 0 0
SMALL
GASTEIGER

@<TRIPOS>ATOM
      1  C          8.3250    0.3270   -1.9170 C.3     1  UNL1        0.1270
      2  C          9.4770    0.2230   -1.0040 C.2     1  UNL1        0.3030
      3  O          9.3990   -0.5440   -0.0050 O.2     1  UNL1       -0.2520
      4  O         10.6600    0.9470   -1.2070 O.3     1  UNL1       -0.4810
      5  H         11.5400    0.4500   -1.1890 H       1  UNL1        0.2960
      6  C          7.1550   -0.5280   -1.4650 C.3     1  UNL1        0.0470
      7  C          6.3520    0.1730   -0.4290 C.2     1  UNL1       -0.0470
      8  C          6.1380   -0.4070    0.8130 C.2     1  UNL1        0.0040
      9  C          5.7760    1.4120   -0.6400 C.2     1  UNL1        0.0040
     10  C          5.3910    0.2120    1.7890 C.2     1  UNL1        0.0000
     11  C          5.0280    2.0310    0.3380 C.2     1  UNL1        0.0000
     12  C          4.8190    1.4480    1.5680 C.2     1  UNL1        0.0000
@<TRIPOS>BOND
     1     1     6    1
     2     1     2    1
     3     6     7    1
     4     4     5    1
     5     4     2    1
     6     2     3    2
     7     9     7    2
     8     9    11    1
     9     7     8    1
    10    11    12    2
    11     8    10    2
    12    12    10    1
