@<TRIPOS>MOLECULE
/home/cewinharhar/GITHUB/reincatalyze/data/processed/docking_pred/2023-Apr-25-2248_maxeplen10_maxtrainstep1000_exh16_gamma099_lrac3e-4_lrcr1e-3/55f9a48c22e019202c812c896c561d7470c53219_ligand_2.pdbqt
 12 12 0 0 0
SMALL
GASTEIGER

@<TRIPOS>ATOM
      1  C          4.9930    1.7440    0.7040 C.3     1  UNL1        0.1270
      2  C          4.4710    1.1070    1.9260 C.2     1  UNL1        0.3030
      3  O          5.1620    0.2200    2.4970 O.2     1  UNL1       -0.2520
      4  O          3.2300    1.4540    2.4790 O.3     1  UNL1       -0.4810
      5  H          3.1020    2.3960    2.8240 H       1  UNL1        0.2960
      6  C          6.5050    1.8800    0.7280 C.3     1  UNL1        0.0470
      7  C          7.1310    1.0670   -0.3470 C.2     1  UNL1       -0.0470
      8  C          8.4730    1.2220   -0.6600 C.2     1  UNL1        0.0040
      9  C          6.4250    0.1370   -1.0890 C.2     1  UNL1        0.0040
     10  C          9.0800    0.4920   -1.6570 C.2     1  UNL1        0.0000
     11  C          7.0340   -0.5930   -2.0870 C.2     1  UNL1        0.0000
     12  C          8.3670   -0.4330   -2.3930 C.2     1  UNL1        0.0000
@<TRIPOS>BOND
     1    12    11    2
     2    12    10    1
     3    11     9    1
     4    10     8    2
     5     9     7    2
     6     8     7    1
     7     7     6    1
     8     1     6    1
     9     1     2    1
    10     2     4    1
    11     2     3    2
    12     4     5    1
