@<TRIPOS>MOLECULE
/home/cewinharhar/GITHUB/reincatalyze/data/processed/docking_pred/2023-Apr-25-2248_maxeplen10_maxtrainstep1000_exh16_gamma099_lrac3e-4_lrcr1e-3/55f9a48c22e019202c812c896c561d7470c53219_ligand_2.pdbqt
 12 12 0 0 0
SMALL
GASTEIGER

@<TRIPOS>ATOM
      1  C          7.9800   -2.3270    0.7280 C.3     1  UNL1        0.1270
      2  C          8.8020   -3.4670    0.2850 C.2     1  UNL1        0.3030
      3  O          9.6850   -3.9220    1.0610 O.2     1  UNL1       -0.2520
      4  O          8.6350   -4.0660   -0.9720 O.3     1  UNL1       -0.4810
      5  H          7.9220   -3.7030   -1.5900 H       1  UNL1        0.2960
      6  C          7.5490   -1.4460   -0.4310 C.3     1  UNL1        0.0470
      7  C          6.6440   -0.3620    0.0320 C.2     1  UNL1       -0.0470
      8  C          6.3300    0.7020   -0.8020 C.2     1  UNL1        0.0040
      9  C          6.0820   -0.3440    1.2950 C.2     1  UNL1        0.0040
     10  C          5.5040    1.7270   -0.3990 C.2     1  UNL1        0.0000
     11  C          5.2550    0.6830    1.6970 C.2     1  UNL1        0.0000
     12  C          4.9490    1.7350    0.8650 C.2     1  UNL1        0.0000
@<TRIPOS>BOND
     1     5     4    1
     2     4     2    1
     3     8    10    1
     4     8     7    2
     5     6     7    1
     6     6     1    1
     7    10    12    2
     8     7     9    1
     9     2     1    1
    10     2     3    2
    11    12    11    1
    12     9    11    2
