@<TRIPOS>MOLECULE
/home/cewinharhar/GITHUB/reincatalyze/data/processed/docking_pred/2023-Apr-25-2248_maxeplen10_maxtrainstep1000_exh16_gamma099_lrac3e-4_lrcr1e-3/55f9a48c22e019202c812c896c561d7470c53219_ligand_2.pdbqt
 12 12 0 0 0
SMALL
GASTEIGER

@<TRIPOS>ATOM
      1  C          8.4060   -0.7290   -2.0530 C.3     1  UNL1        0.1270
      2  C          8.4340   -1.9480   -2.8800 C.2     1  UNL1        0.3030
      3  O          9.5370   -2.5240   -3.0850 O.2     1  UNL1       -0.2520
      4  O          7.2730   -2.4930   -3.4490 O.3     1  UNL1       -0.4810
      5  H          7.3330   -3.3970   -3.8960 H       1  UNL1        0.2960
      6  C          7.0520   -0.0430   -2.0870 C.3     1  UNL1        0.0470
      7  C          6.4680    0.0520   -0.7240 C.2     1  UNL1       -0.0470
      8  C          5.7990    1.1990   -0.3190 C.2     1  UNL1        0.0040
      9  C          6.5630   -0.9690    0.2040 C.2     1  UNL1        0.0040
     10  C          5.2570    1.3220    0.9400 C.2     1  UNL1        0.0000
     11  C          6.0190   -0.8440    1.4640 C.2     1  UNL1        0.0000
     12  C          5.3590    0.2970    1.8590 C.2     1  UNL1        0.0000
@<TRIPOS>BOND
     1     5     4    1
     2     4     2    1
     3     3     2    2
     4     2     1    1
     5     6     1    1
     6     6     7    1
     7     7     8    2
     8     7     9    1
     9     8    10    1
    10     9    11    2
    11    10    12    2
    12    11    12    1
