@<TRIPOS>MOLECULE
/home/cewinharhar/GITHUB/reincatalyze/data/processed/docking_pred/2023-Apr-25-2248_maxeplen10_maxtrainstep1000_exh16_gamma099_lrac3e-4_lrcr1e-3/57f45ec83c8c38489066d898ddae0638f0802b8b_ligand_2.pdbqt
 12 12 0 0 0
SMALL
GASTEIGER

@<TRIPOS>ATOM
      1  C          5.0000    1.8020    0.7470 C.3     1  UNL1        0.1270
      2  C          4.4670    1.1120    1.9350 C.2     1  UNL1        0.3030
      3  O          5.1500    0.1960    2.4690 O.2     1  UNL1       -0.2520
      4  O          3.2250    1.4410    2.4970 O.3     1  UNL1       -0.4810
      5  H          2.9370    2.4110    2.5000 H       1  UNL1        0.2960
      6  C          6.5150    1.8930    0.7670 C.3     1  UNL1        0.0470
      7  C          7.1120    1.0890   -0.3310 C.2     1  UNL1       -0.0470
      8  C          8.4580    1.2100   -0.6450 C.2     1  UNL1        0.0040
      9  C          6.3760    0.2000   -1.0930 C.2     1  UNL1        0.0040
     10  C          9.0380    0.4880   -1.6630 C.2     1  UNL1        0.0000
     11  C          6.9590   -0.5220   -2.1120 C.2     1  UNL1        0.0000
     12  C          8.2950   -0.3960   -2.4190 C.2     1  UNL1        0.0000
@<TRIPOS>BOND
     1    12    11    2
     2    12    10    1
     3    11     9    1
     4    10     8    2
     5     9     7    2
     6     8     7    1
     7     7     6    1
     8     1     6    1
     9     1     2    1
    10     2     3    2
    11     2     4    1
    12     4     5    1
