@<TRIPOS>MOLECULE
/home/cewinharhar/GITHUB/reincatalyze/data/processed/docking_pred/2023-Apr-25-2248_maxeplen10_maxtrainstep1000_exh16_gamma099_lrac3e-4_lrcr1e-3/57f45ec83c8c38489066d898ddae0638f0802b8b_ligand_2.pdbqt
 12 12 0 0 0
SMALL
GASTEIGER

@<TRIPOS>ATOM
      1  C          8.3970   -0.6350   -2.1390 C.3     1  UNL1        0.1270
      2  C          8.4280   -1.8970   -2.9000 C.2     1  UNL1        0.3030
      3  O          9.5330   -2.4770   -3.0790 O.2     1  UNL1       -0.2520
      4  O          7.2670   -2.4780   -3.4310 O.3     1  UNL1       -0.4810
      5  H          7.3140   -2.8980   -4.3500 H       1  UNL1        0.2960
      6  C          7.0120   -0.0130   -2.1140 C.3     1  UNL1        0.0470
      7  C          6.4860    0.0600   -0.7270 C.2     1  UNL1       -0.0470
      8  C          6.6140   -1.0190    0.1370 C.2     1  UNL1        0.0040
      9  C          5.8430    1.1780   -0.2280 C.2     1  UNL1        0.0040
     10  C          6.1280   -0.9860    1.4240 C.2     1  UNL1        0.0000
     11  C          5.3570    1.2100    1.0610 C.2     1  UNL1        0.0000
     12  C          5.4870    0.1350    1.9120 C.2     1  UNL1        0.0000
@<TRIPOS>BOND
     1     5     4    1
     2     4     2    1
     3     3     2    2
     4     2     1    1
     5     1     6    1
     6     6     7    1
     7     7     9    2
     8     7     8    1
     9     9    11    1
    10     8    10    2
    11    11    12    2
    12    10    12    1
