@<TRIPOS>MOLECULE
/home/cewinharhar/GITHUB/reincatalyze/data/processed/docking_pred/2023-Apr-25-2248_maxeplen10_maxtrainstep1000_exh16_gamma099_lrac3e-4_lrcr1e-3/57f45ec83c8c38489066d898ddae0638f0802b8b_ligand_2.pdbqt
 12 12 0 0 0
SMALL
GASTEIGER

@<TRIPOS>ATOM
      1  C          5.4640    2.9150    0.0830 C.3     1  UNL1        0.1270
      2  C          6.2420    3.8910    0.8660 C.2     1  UNL1        0.3030
      3  O          6.9050    4.7750    0.2580 O.2     1  UNL1       -0.2520
      4  O          6.2700    3.8730    2.2680 O.3     1  UNL1       -0.4810
      5  H          6.6060    4.6930    2.7550 H       1  UNL1        0.2960
      6  C          4.8770    1.8180    0.9540 C.3     1  UNL1        0.0470
      7  C          5.7380    0.6070    0.9370 C.2     1  UNL1       -0.0470
      8  C          5.7520   -0.2660    2.0160 C.2     1  UNL1        0.0040
      9  C          6.5640    0.2900   -0.1250 C.2     1  UNL1        0.0040
     10  C          6.5460   -1.3900    2.0360 C.2     1  UNL1        0.0000
     11  C          7.3580   -0.8360   -0.1040 C.2     1  UNL1        0.0000
     12  C          7.3680   -1.6960    0.9700 C.2     1  UNL1        0.0000
@<TRIPOS>BOND
     1     9    11    1
     2     9     7    2
     3    11    12    2
     4     1     2    1
     5     1     6    1
     6     3     2    2
     7     2     4    1
     8     7     6    1
     9     7     8    1
    10    12    10    1
    11     8    10    2
    12     4     5    1
