@<TRIPOS>MOLECULE
/home/cewinharhar/GITHUB/reincatalyze/data/processed/docking_pred/2023-Apr-25-2248_maxeplen10_maxtrainstep1000_exh16_gamma099_lrac3e-4_lrcr1e-3/57f45ec83c8c38489066d898ddae0638f0802b8b_ligand_2.pdbqt
 12 12 0 0 0
SMALL
GASTEIGER

@<TRIPOS>ATOM
      1  C          5.0270    1.7970    0.7290 C.3     1  UNL1        0.1270
      2  C          4.5680    1.0700    1.9250 C.2     1  UNL1        0.3030
      3  O          3.4370    1.3430    2.4120 O.2     1  UNL1       -0.2520
      4  O          5.3460    0.0800    2.5430 O.3     1  UNL1       -0.4810
      5  H          4.8830   -0.7410    2.9080 H       1  UNL1        0.2960
      6  C          6.5340    1.9780    0.7100 C.3     1  UNL1        0.0470
      7  C          7.1570    1.1490   -0.3550 C.2     1  UNL1       -0.0470
      8  C          6.3960    0.2490   -1.0860 C.2     1  UNL1        0.0040
      9  C          8.5030    1.2180   -0.6650 C.2     1  UNL1        0.0040
     10  C          6.9450   -0.5400   -2.0710 C.2     1  UNL1        0.0000
     11  C          9.0510    0.4270   -1.6520 C.2     1  UNL1        0.0000
     12  C          8.2900   -0.4650   -2.3720 C.2     1  UNL1        0.0000
@<TRIPOS>BOND
     1    12    10    2
     2    12    11    1
     3    10     8    1
     4    11     9    2
     5     8     7    2
     6     9     7    1
     7     7     6    1
     8     6     1    1
     9     1     2    1
    10     2     3    2
    11     2     4    1
    12     4     5    1
