@<TRIPOS>MOLECULE
/home/cewinharhar/GITHUB/reincatalyze/data/processed/docking_pred/2023-Apr-25-2248_maxeplen10_maxtrainstep1000_exh16_gamma099_lrac3e-4_lrcr1e-3/59d8efee26bc15572bc8cf3b0279eede3143e347_ligand_2.pdbqt
 12 12 0 0 0
SMALL
GASTEIGER

@<TRIPOS>ATOM
      1  C          8.5040    0.6650   -1.6290 C.3     1  UNL1        0.1270
      2  C          9.6670    0.2970   -0.8020 C.2     1  UNL1        0.3030
      3  O          9.5080   -0.5110    0.1530 O.2     1  UNL1       -0.2520
      4  O         10.9480    0.8140   -1.0410 O.3     1  UNL1       -0.4810
      5  H         11.3190    1.5030   -0.4010 H       1  UNL1        0.2960
      6  C          7.3230   -0.2630   -1.4030 C.3     1  UNL1        0.0470
      7  C          6.4280    0.2640   -0.3400 C.2     1  UNL1       -0.0470
      8  C          5.8010    1.4930   -0.4870 C.2     1  UNL1        0.0040
      9  C          6.1810   -0.4200    0.8370 C.2     1  UNL1        0.0040
     10  C          4.9750    2.0120    0.4830 C.2     1  UNL1        0.0000
     11  C          5.3530    0.1020    1.8070 C.2     1  UNL1        0.0000
     12  C          4.7360    1.3230    1.6550 C.2     1  UNL1        0.0000
@<TRIPOS>BOND
     1     1     6    1
     2     1     2    1
     3     6     7    1
     4     4     2    1
     5     4     5    1
     6     2     3    2
     7     8     7    2
     8     8    10    1
     9     7     9    1
    10    10    12    2
    11     9    11    2
    12    12    11    1
