@<TRIPOS>MOLECULE
/home/cewinharhar/GITHUB/reincatalyze/data/processed/docking_pred/2023-Apr-25-2248_maxeplen10_maxtrainstep1000_exh16_gamma099_lrac3e-4_lrcr1e-3/59d8efee26bc15572bc8cf3b0279eede3143e347_ligand_2.pdbqt
 12 12 0 0 0
SMALL
GASTEIGER

@<TRIPOS>ATOM
      1  C          8.4000   -0.6500   -2.1190 C.3     1  UNL1        0.1270
      2  C          8.4300   -1.9030   -2.8940 C.2     1  UNL1        0.3030
      3  O          9.5370   -2.4750   -3.0900 O.2     1  UNL1       -0.2520
      4  O          7.2680   -2.4850   -3.4210 O.3     1  UNL1       -0.4810
      5  H          6.3860   -2.0110   -3.2840 H       1  UNL1        0.2960
      6  C          7.0210   -0.0140   -2.1100 C.3     1  UNL1        0.0470
      7  C          6.4740    0.0500   -0.7290 C.2     1  UNL1       -0.0470
      8  C          5.8200    1.1880   -0.2800 C.2     1  UNL1        0.0040
      9  C          6.5920   -0.9920    0.1720 C.2     1  UNL1        0.0040
     10  C          5.3120    1.2830    0.9950 C.2     1  UNL1        0.0000
     11  C          6.0820   -0.8960    1.4490 C.2     1  UNL1        0.0000
     12  C          5.4350    0.2370    1.8880 C.2     1  UNL1        0.0000
@<TRIPOS>BOND
     1     4     5    1
     2     4     2    1
     3     3     2    2
     4     2     1    1
     5     1     6    1
     6     6     7    1
     7     7     8    2
     8     7     9    1
     9     8    10    1
    10     9    11    2
    11    10    12    2
    12    11    12    1
