@<TRIPOS>MOLECULE
/home/cewinharhar/GITHUB/reincatalyze/data/processed/docking_pred/2023-Apr-25-2248_maxeplen10_maxtrainstep1000_exh16_gamma099_lrac3e-4_lrcr1e-3/59d8efee26bc15572bc8cf3b0279eede3143e347_ligand_2.pdbqt
 12 12 0 0 0
SMALL
GASTEIGER

@<TRIPOS>ATOM
      1  C          8.3910   -0.6600   -2.1010 C.3     1  UNL1        0.1270
      2  C          8.4050   -1.9110   -2.8800 C.2     1  UNL1        0.3030
      3  O          7.3090   -2.4260   -3.2320 O.2     1  UNL1       -0.2520
      4  O          9.5990   -2.5510   -3.2460 O.3     1  UNL1       -0.4810
      5  H          9.6760   -3.5480   -3.1020 H       1  UNL1        0.2960
      6  C          7.0280    0.0090   -2.1160 C.3     1  UNL1        0.0470
      7  C          6.4730    0.1170   -0.7420 C.2     1  UNL1       -0.0470
      8  C          6.6010   -0.9310    0.1580 C.2     1  UNL1        0.0040
      9  C          5.8010    1.2390   -0.2920 C.2     1  UNL1        0.0040
     10  C          6.0890   -0.8660    1.4340 C.2     1  UNL1        0.0000
     11  C          5.2890    1.3030    0.9860 C.2     1  UNL1        0.0000
     12  C          5.4200    0.2590    1.8730 C.2     1  UNL1        0.0000
@<TRIPOS>BOND
     1     4     5    1
     2     4     2    1
     3     3     2    2
     4     2     1    1
     5     6     1    1
     6     6     7    1
     7     7     9    2
     8     7     8    1
     9     9    11    1
    10     8    10    2
    11    11    12    2
    12    10    12    1
