@<TRIPOS>MOLECULE
/home/cewinharhar/GITHUB/reincatalyze/data/processed/docking_pred/2023-Apr-25-2248_maxeplen10_maxtrainstep1000_exh16_gamma099_lrac3e-4_lrcr1e-3/59d8efee26bc15572bc8cf3b0279eede3143e347_ligand_2.pdbqt
 12 12 0 0 0
SMALL
GASTEIGER

@<TRIPOS>ATOM
      1  C          8.0480   -2.2400    0.7010 C.3     1  UNL1        0.1270
      2  C          8.8090   -3.4320    0.2860 C.2     1  UNL1        0.3030
      3  O          9.6590   -3.9210    1.0780 O.2     1  UNL1       -0.2520
      4  O          8.6180   -4.0440   -0.9610 O.3     1  UNL1       -0.4810
      5  H          7.7060   -3.9860   -1.3940 H       1  UNL1        0.2960
      6  C          7.4650   -1.4900   -0.4840 C.3     1  UNL1        0.0470
      7  C          6.6120   -0.3600   -0.0320 C.2     1  UNL1       -0.0470
      8  C          6.0800   -0.3440    1.2490 C.2     1  UNL1        0.0040
      9  C          6.2970    0.7120   -0.8470 C.2     1  UNL1        0.0040
     10  C          5.2780    0.6820    1.6930 C.2     1  UNL1        0.0000
     11  C          5.4940    1.7390   -0.4000 C.2     1  UNL1        0.0000
     12  C          4.9680    1.7480    0.8720 C.2     1  UNL1        0.0000
@<TRIPOS>BOND
     1     5     4    1
     2     4     2    1
     3     9    11    1
     4     9     7    2
     5     6     7    1
     6     6     1    1
     7    11    12    2
     8     7     8    1
     9     2     1    1
    10     2     3    2
    11    12    10    1
    12     8    10    2
