@<TRIPOS>MOLECULE
/home/cewinharhar/GITHUB/reincatalyze/data/processed/docking_pred/2023-Apr-25-2248_maxeplen10_maxtrainstep1000_exh16_gamma099_lrac3e-4_lrcr1e-3/59d8efee26bc15572bc8cf3b0279eede3143e347_ligand_2.pdbqt
 12 12 0 0 0
SMALL
GASTEIGER

@<TRIPOS>ATOM
      1  C          5.0060    1.7760    0.7320 C.3     1  UNL1        0.1270
      2  C          4.4720    1.1070    1.9310 C.2     1  UNL1        0.3030
      3  O          5.1540    0.2000    2.4810 O.2     1  UNL1       -0.2520
      4  O          3.2300    1.4460    2.4860 O.3     1  UNL1       -0.4810
      5  H          3.2060    1.8260    3.4220 H       1  UNL1        0.2960
      6  C          6.5210    1.8770    0.7570 C.3     1  UNL1        0.0470
      7  C          7.1270    1.0640   -0.3300 C.2     1  UNL1       -0.0470
      8  C          8.4650    1.2170   -0.6660 C.2     1  UNL1        0.0040
      9  C          6.4070    0.1370   -1.0620 C.2     1  UNL1        0.0040
     10  C          9.0520    0.4880   -1.6740 C.2     1  UNL1        0.0000
     11  C          6.9980   -0.5920   -2.0710 C.2     1  UNL1        0.0000
     12  C          8.3250   -0.4350   -2.3990 C.2     1  UNL1        0.0000
@<TRIPOS>BOND
     1    12    11    2
     2    12    10    1
     3    11     9    1
     4    10     8    2
     5     9     7    2
     6     8     7    1
     7     7     6    1
     8     1     6    1
     9     1     2    1
    10     2     3    2
    11     2     4    1
    12     4     5    1
