MODEL 1
REMARK VINA RESULT:      -7.3      0.000      0.000
REMARK SMILES O=C(O)CCc1ccccc1
REMARK SMILES IDX 4 1 2 2 1 3 3 4 5 6 6 7 7 8 11 9 8 10 10 11 9 12
REMARK H PARENT 3 5
REMARK Flexibility Score: inf
ROOT
ATOM      1  C   UNL     1       8.400  -0.650  -2.119  1.00  0.00     0.127 C 
ENDROOT
BRANCH   1   2
ATOM      2  C   UNL     1       8.430  -1.903  -2.894  1.00  0.00     0.303 C 
ATOM      3  O   UNL     1       9.537  -2.475  -3.090  1.00  0.00    -0.252 OA
BRANCH   2   4
ATOM      4  O   UNL     1       7.268  -2.485  -3.421  1.00  0.00    -0.481 OA
ATOM      5  H   UNL     1       6.386  -2.011  -3.284  1.00  0.00     0.296 HD
ENDBRANCH   2   4
ENDBRANCH   1   2
BRANCH   1   6
ATOM      6  C   UNL     1       7.021  -0.014  -2.110  1.00  0.00     0.047 C 
BRANCH   6   7
ATOM      7  C   UNL     1       6.474   0.050  -0.729  1.00  0.00    -0.047 A 
ATOM      8  C   UNL     1       5.820   1.188  -0.280  1.00  0.00     0.004 A 
ATOM      9  C   UNL     1       6.592  -0.992   0.172  1.00  0.00     0.004 A 
ATOM     10  C   UNL     1       5.312   1.283   0.995  1.00  0.00     0.000 A 
ATOM     11  C   UNL     1       6.082  -0.896   1.449  1.00  0.00     0.000 A 
ATOM     12  C   UNL     1       5.435   0.237   1.888  1.00  0.00     0.000 A 
ENDBRANCH   6   7
ENDBRANCH   1   6
TORSDOF 4
ENDMDL
MODEL 2
REMARK VINA RESULT:      -7.3      0.091      1.723
REMARK SMILES O=C(O)CCc1ccccc1
REMARK SMILES IDX 4 1 2 2 1 3 3 4 5 6 6 7 7 8 11 9 8 10 10 11 9 12
REMARK H PARENT 3 5
REMARK Flexibility Score: inf
ROOT
ATOM      1  C   UNL     1       8.391  -0.660  -2.101  1.00  0.00     0.127 C 
ENDROOT
BRANCH   1   2
ATOM      2  C   UNL     1       8.405  -1.911  -2.880  1.00  0.00     0.303 C 
ATOM      3  O   UNL     1       7.309  -2.426  -3.232  1.00  0.00    -0.252 OA
BRANCH   2   4
ATOM      4  O   UNL     1       9.599  -2.551  -3.246  1.00  0.00    -0.481 OA
ATOM      5  H   UNL     1       9.676  -3.548  -3.102  1.00  0.00     0.296 HD
ENDBRANCH   2   4
ENDBRANCH   1   2
BRANCH   1   6
ATOM      6  C   UNL     1       7.028   0.009  -2.116  1.00  0.00     0.047 C 
BRANCH   6   7
ATOM      7  C   UNL     1       6.473   0.117  -0.742  1.00  0.00    -0.047 A 
ATOM      8  C   UNL     1       6.601  -0.931   0.158  1.00  0.00     0.004 A 
ATOM      9  C   UNL     1       5.801   1.239  -0.292  1.00  0.00     0.004 A 
ATOM     10  C   UNL     1       6.089  -0.866   1.434  1.00  0.00     0.000 A 
ATOM     11  C   UNL     1       5.289   1.303   0.986  1.00  0.00     0.000 A 
ATOM     12  C   UNL     1       5.420   0.259   1.873  1.00  0.00     0.000 A 
ENDBRANCH   6   7
ENDBRANCH   1   6
TORSDOF 4
ENDMDL
MODEL 3
REMARK VINA RESULT:      -6.8      3.391      5.076
REMARK SMILES O=C(O)CCc1ccccc1
REMARK SMILES IDX 4 1 2 2 1 3 3 4 5 6 6 7 7 8 11 9 8 10 10 11 9 12
REMARK H PARENT 3 5
REMARK Flexibility Score: inf
ROOT
ATOM      1  C   UNL     1       5.006   1.776   0.732  1.00  0.00     0.127 C 
ENDROOT
BRANCH   1   2
ATOM      2  C   UNL     1       4.472   1.107   1.931  1.00  0.00     0.303 C 
ATOM      3  O   UNL     1       5.154   0.200   2.481  1.00  0.00    -0.252 OA
BRANCH   2   4
ATOM      4  O   UNL     1       3.230   1.446   2.486  1.00  0.00    -0.481 OA
ATOM      5  H   UNL     1       3.206   1.826   3.422  1.00  0.00     0.296 HD
ENDBRANCH   2   4
ENDBRANCH   1   2
BRANCH   1   6
ATOM      6  C   UNL     1       6.521   1.877   0.757  1.00  0.00     0.047 C 
BRANCH   6   7
ATOM      7  C   UNL     1       7.127   1.064  -0.330  1.00  0.00    -0.047 A 
ATOM      8  C   UNL     1       8.465   1.217  -0.666  1.00  0.00     0.004 A 
ATOM      9  C   UNL     1       6.407   0.137  -1.062  1.00  0.00     0.004 A 
ATOM     10  C   UNL     1       9.052   0.488  -1.674  1.00  0.00     0.000 A 
ATOM     11  C   UNL     1       6.998  -0.592  -2.071  1.00  0.00     0.000 A 
ATOM     12  C   UNL     1       8.325  -0.435  -2.399  1.00  0.00     0.000 A 
ENDBRANCH   6   7
ENDBRANCH   1   6
TORSDOF 4
ENDMDL
MODEL 4
REMARK VINA RESULT:      -6.6      2.043      2.739
REMARK SMILES O=C(O)CCc1ccccc1
REMARK SMILES IDX 4 1 2 2 1 3 3 4 5 6 6 7 7 8 11 9 8 10 10 11 9 12
REMARK H PARENT 3 5
REMARK Flexibility Score: inf
ROOT
ATOM      1  C   UNL     1       8.048  -2.240   0.701  1.00  0.00     0.127 C 
ENDROOT
BRANCH   1   2
ATOM      2  C   UNL     1       8.809  -3.432   0.286  1.00  0.00     0.303 C 
ATOM      3  O   UNL     1       9.659  -3.921   1.078  1.00  0.00    -0.252 OA
BRANCH   2   4
ATOM      4  O   UNL     1       8.618  -4.044  -0.961  1.00  0.00    -0.481 OA
ATOM      5  H   UNL     1       7.706  -3.986  -1.394  1.00  0.00     0.296 HD
ENDBRANCH   2   4
ENDBRANCH   1   2
BRANCH   1   6
ATOM      6  C   UNL     1       7.465  -1.490  -0.484  1.00  0.00     0.047 C 
BRANCH   6   7
ATOM      7  C   UNL     1       6.612  -0.360  -0.032  1.00  0.00    -0.047 A 
ATOM      8  C   UNL     1       6.080  -0.344   1.249  1.00  0.00     0.004 A 
ATOM      9  C   UNL     1       6.297   0.712  -0.847  1.00  0.00     0.004 A 
ATOM     10  C   UNL     1       5.278   0.682   1.693  1.00  0.00     0.000 A 
ATOM     11  C   UNL     1       5.494   1.739  -0.400  1.00  0.00     0.000 A 
ATOM     12  C   UNL     1       4.968   1.748   0.872  1.00  0.00     0.000 A 
ENDBRANCH   6   7
ENDBRANCH   1   6
TORSDOF 4
ENDMDL
MODEL 5
REMARK VINA RESULT:      -6.6      2.075      2.401
REMARK SMILES O=C(O)CCc1ccccc1
REMARK SMILES IDX 4 1 2 2 1 3 3 4 5 6 6 7 7 8 11 9 8 10 10 11 9 12
REMARK H PARENT 3 5
REMARK Flexibility Score: inf
ROOT
ATOM      1  C   UNL     1       8.504   0.665  -1.629  1.00  0.00     0.127 C 
ENDROOT
BRANCH   1   2
ATOM      2  C   UNL     1       9.667   0.297  -0.802  1.00  0.00     0.303 C 
ATOM      3  O   UNL     1       9.508  -0.511   0.153  1.00  0.00    -0.252 OA
BRANCH   2   4
ATOM      4  O   UNL     1      10.948   0.814  -1.041  1.00  0.00    -0.481 OA
ATOM      5  H   UNL     1      11.319   1.503  -0.401  1.00  0.00     0.296 HD
ENDBRANCH   2   4
ENDBRANCH   1   2
BRANCH   1   6
ATOM      6  C   UNL     1       7.323  -0.263  -1.403  1.00  0.00     0.047 C 
BRANCH   6   7
ATOM      7  C   UNL     1       6.428   0.264  -0.340  1.00  0.00    -0.047 A 
ATOM      8  C   UNL     1       5.801   1.493  -0.487  1.00  0.00     0.004 A 
ATOM      9  C   UNL     1       6.181  -0.420   0.837  1.00  0.00     0.004 A 
ATOM     10  C   UNL     1       4.975   2.012   0.483  1.00  0.00     0.000 A 
ATOM     11  C   UNL     1       5.353   0.102   1.807  1.00  0.00     0.000 A 
ATOM     12  C   UNL     1       4.736   1.323   1.655  1.00  0.00     0.000 A 
ENDBRANCH   6   7
ENDBRANCH   1   6
TORSDOF 4
ENDMDL
