@<TRIPOS>MOLECULE
/home/cewinharhar/GITHUB/reincatalyze/data/processed/docking_pred/2023-Apr-25-2248_maxeplen10_maxtrainstep1000_exh16_gamma099_lrac3e-4_lrcr1e-3/5ba5439e64352188cd964ddb86dd28d806e95272_ligand_2.pdbqt
 12 12 0 0 0
SMALL
GASTEIGER

@<TRIPOS>ATOM
      1  C          8.4040   -0.7270   -2.0430 C.3     1  UNL1        0.1270
      2  C          8.4160   -1.9370   -2.8830 C.2     1  UNL1        0.3030
      3  O          9.5080   -2.5370   -3.0760 O.2     1  UNL1       -0.2520
      4  O          7.2520   -2.4470   -3.4760 O.3     1  UNL1       -0.4810
      5  H          6.3830   -1.9490   -3.3410 H       1  UNL1        0.2960
      6  C          7.0530   -0.0340   -2.0530 C.3     1  UNL1        0.0470
      7  C          6.4790    0.0340   -0.6840 C.2     1  UNL1       -0.0470
      8  C          5.8160    1.1730   -0.2500 C.2     1  UNL1        0.0040
      9  C          6.5790   -1.0060    0.2220 C.2     1  UNL1        0.0040
     10  C          5.2830    1.2710    1.0140 C.2     1  UNL1        0.0000
     11  C          6.0440   -0.9060    1.4890 C.2     1  UNL1        0.0000
     12  C          5.3890    0.2280    1.9120 C.2     1  UNL1        0.0000
@<TRIPOS>BOND
     1     4     5    1
     2     4     2    1
     3     3     2    2
     4     2     1    1
     5     6     1    1
     6     6     7    1
     7     7     8    2
     8     7     9    1
     9     8    10    1
    10     9    11    2
    11    10    12    2
    12    11    12    1
