@<TRIPOS>MOLECULE
/home/cewinharhar/GITHUB/reincatalyze/data/processed/docking_pred/2023-Apr-25-2248_maxeplen10_maxtrainstep1000_exh16_gamma099_lrac3e-4_lrcr1e-3/5ba5439e64352188cd964ddb86dd28d806e95272_ligand_2.pdbqt
 12 12 0 0 0
SMALL
GASTEIGER

@<TRIPOS>ATOM
      1  C          5.0250    1.7880    0.7340 C.3     1  UNL1        0.1270
      2  C          4.4790    1.1130    1.9250 C.2     1  UNL1        0.3030
      3  O          5.1510    0.1980    2.4730 O.2     1  UNL1       -0.2520
      4  O          3.2350    1.4560    2.4740 O.3     1  UNL1       -0.4810
      5  H          2.4090    0.9820    2.1330 H       1  UNL1        0.2960
      6  C          6.5390    1.8900    0.7760 C.3     1  UNL1        0.0470
      7  C          7.1570    1.0970   -0.3180 C.2     1  UNL1       -0.0470
      8  C          6.4060    0.1780   -1.0370 C.2     1  UNL1        0.0040
      9  C          8.4890    1.2170   -0.6700 C.2     1  UNL1        0.0040
     10  C          6.9510   -0.5790   -2.0490 C.2     1  UNL1        0.0000
     11  C          9.0330    0.4580   -1.6830 C.2     1  UNL1        0.0000
     12  C          8.2820   -0.4520   -2.3910 C.2     1  UNL1        0.0000
@<TRIPOS>BOND
     1    12    10    2
     2    12    11    1
     3    10     8    1
     4    11     9    2
     5     8     7    2
     6     9     7    1
     7     7     6    1
     8     1     6    1
     9     1     2    1
    10     2     3    2
    11     2     4    1
    12     5     4    1
