@<TRIPOS>MOLECULE
/home/cewinharhar/GITHUB/reincatalyze/data/processed/docking_pred/2023-Apr-25-2248_maxeplen10_maxtrainstep1000_exh16_gamma099_lrac3e-4_lrcr1e-3/5ba5439e64352188cd964ddb86dd28d806e95272_ligand_2.pdbqt
 12 12 0 0 0
SMALL
GASTEIGER

@<TRIPOS>ATOM
      1  C          8.3810   -0.6670   -2.1050 C.3     1  UNL1        0.1270
      2  C          8.3920   -1.9180   -2.8840 C.2     1  UNL1        0.3030
      3  O          7.2950   -2.4260   -3.2420 O.2     1  UNL1       -0.2520
      4  O          9.5840   -2.5650   -3.2420 O.3     1  UNL1       -0.4810
      5  H         10.3820   -2.4830   -2.6280 H       1  UNL1        0.2960
      6  C          7.0200    0.0050   -2.1180 C.3     1  UNL1        0.0470
      7  C          6.4680    0.1170   -0.7430 C.2     1  UNL1       -0.0470
      8  C          6.6000   -0.9280    0.1600 C.2     1  UNL1        0.0040
      9  C          5.7960    1.2390   -0.2950 C.2     1  UNL1        0.0040
     10  C          6.0910   -0.8600    1.4360 C.2     1  UNL1        0.0000
     11  C          5.2860    1.3060    0.9840 C.2     1  UNL1        0.0000
     12  C          5.4200    0.2640    1.8730 C.2     1  UNL1        0.0000
@<TRIPOS>BOND
     1     3     2    2
     2     4     2    1
     3     4     5    1
     4     2     1    1
     5     6     1    1
     6     6     7    1
     7     7     9    2
     8     7     8    1
     9     9    11    1
    10     8    10    2
    11    11    12    2
    12    10    12    1
