@<TRIPOS>MOLECULE
/home/cewinharhar/GITHUB/reincatalyze/data/processed/docking_pred/2023-Apr-25-2248_maxeplen10_maxtrainstep1000_exh16_gamma099_lrac3e-4_lrcr1e-3/5ba5439e64352188cd964ddb86dd28d806e95272_ligand_2.pdbqt
 12 12 0 0 0
SMALL
GASTEIGER

@<TRIPOS>ATOM
      1  C          5.0050    1.8240    0.7300 C.3     1  UNL1        0.1270
      2  C          4.4700    1.1360    1.9190 C.2     1  UNL1        0.3030
      3  O          5.1530    0.2240    2.4570 O.2     1  UNL1       -0.2520
      4  O          3.2250    1.4630    2.4750 O.3     1  UNL1       -0.4810
      5  H          2.3890    1.2490    1.9480 H       1  UNL1        0.2960
      6  C          6.5200    1.9120    0.7520 C.3     1  UNL1        0.0470
      7  C          7.1170    1.0950   -0.3370 C.2     1  UNL1       -0.0470
      8  C          8.4600    1.2190   -0.6610 C.2     1  UNL1        0.0040
      9  C          6.3830    0.1900   -1.0820 C.2     1  UNL1        0.0040
     10  C          9.0400    0.4850   -1.6700 C.2     1  UNL1        0.0000
     11  C          6.9650   -0.5450   -2.0930 C.2     1  UNL1        0.0000
     12  C          8.2980   -0.4150   -2.4090 C.2     1  UNL1        0.0000
@<TRIPOS>BOND
     1    12    11    2
     2    12    10    1
     3    11     9    1
     4    10     8    2
     5     9     7    2
     6     8     7    1
     7     7     6    1
     8     1     6    1
     9     1     2    1
    10     2     3    2
    11     2     4    1
    12     5     4    1
