@<TRIPOS>MOLECULE
/home/cewinharhar/GITHUB/reincatalyze/data/processed/docking_pred/2023-Apr-25-2248_maxeplen10_maxtrainstep1000_exh16_gamma099_lrac3e-4_lrcr1e-3/5ba5439e64352188cd964ddb86dd28d806e95272_ligand_2.pdbqt
 12 12 0 0 0
SMALL
GASTEIGER

@<TRIPOS>ATOM
      1  C          7.9310   -2.3200    0.7020 C.3     1  UNL1        0.1270
      2  C          8.7790   -3.4500    0.2830 C.2     1  UNL1        0.3030
      3  O          9.6650   -3.8760    1.0730 O.2     1  UNL1       -0.2520
      4  O          8.6340   -4.0720   -0.9650 O.3     1  UNL1       -0.4810
      5  H          8.8990   -5.0440   -1.0550 H       1  UNL1        0.2960
      6  C          7.5000   -1.4600   -0.4730 C.3     1  UNL1        0.0470
      7  C          6.6310   -0.3420   -0.0240 C.2     1  UNL1       -0.0470
      8  C          6.0920   -0.3330    1.2550 C.2     1  UNL1        0.0040
      9  C          6.3060    0.7280   -0.8390 C.2     1  UNL1        0.0040
     10  C          5.2750    0.6820    1.6970 C.2     1  UNL1        0.0000
     11  C          5.4880    1.7440   -0.3940 C.2     1  UNL1        0.0000
     12  C          4.9570    1.7450    0.8750 C.2     1  UNL1        0.0000
@<TRIPOS>BOND
     1     5     4    1
     2     4     2    1
     3     9    11    1
     4     9     7    2
     5     6     7    1
     6     6     1    1
     7    11    12    2
     8     7     8    1
     9     2     1    1
    10     2     3    2
    11    12    10    1
    12     8    10    2
