@<TRIPOS>MOLECULE
/home/cewinharhar/GITHUB/reincatalyze/data/processed/docking_pred/2023-Apr-25-2248_maxeplen10_maxtrainstep1000_exh16_gamma099_lrac3e-4_lrcr1e-3/5bd4159c0713ad18fb2d2a846002564f6b7df27c_ligand_2.pdbqt
 12 12 0 0 0
SMALL
GASTEIGER

@<TRIPOS>ATOM
      1  C          8.3900   -0.6500   -2.1240 C.3     1  UNL1        0.1270
      2  C          8.3960   -1.9060   -2.8940 C.2     1  UNL1        0.3030
      3  O          7.2970   -2.4120   -3.2490 O.2     1  UNL1       -0.2520
      4  O          9.5850   -2.5600   -3.2490 O.3     1  UNL1       -0.4810
      5  H          9.8940   -2.5130   -4.2100 H       1  UNL1        0.2960
      6  C          7.0290    0.0230   -2.1350 C.3     1  UNL1        0.0470
      7  C          6.4750    0.1260   -0.7590 C.2     1  UNL1       -0.0470
      8  C          6.6140   -0.9220    0.1400 C.2     1  UNL1        0.0040
      9  C          5.7940    1.2420   -0.3080 C.2     1  UNL1        0.0040
     10  C          6.1030   -0.8620    1.4160 C.2     1  UNL1        0.0000
     11  C          5.2830    1.3010    0.9710 C.2     1  UNL1        0.0000
     12  C          5.4250    0.2570    1.8560 C.2     1  UNL1        0.0000
@<TRIPOS>BOND
     1     5     4    1
     2     3     2    2
     3     4     2    1
     4     2     1    1
     5     6     1    1
     6     6     7    1
     7     7     9    2
     8     7     8    1
     9     9    11    1
    10     8    10    2
    11    11    12    2
    12    10    12    1
