@<TRIPOS>MOLECULE
/home/cewinharhar/GITHUB/reincatalyze/data/processed/docking_pred/2023-Apr-25-2248_maxeplen10_maxtrainstep1000_exh16_gamma099_lrac3e-4_lrcr1e-3/5bd4159c0713ad18fb2d2a846002564f6b7df27c_ligand_2.pdbqt
 12 12 0 0 0
SMALL
GASTEIGER

@<TRIPOS>ATOM
      1  C          8.2400   -0.8680   -1.9760 C.3     1  UNL1        0.1270
      2  C          8.3600   -2.0050   -2.9050 C.2     1  UNL1        0.3030
      3  O          9.4960   -2.5170   -3.1030 O.2     1  UNL1       -0.2520
      4  O          7.2530   -2.5410   -3.5780 O.3     1  UNL1       -0.4810
      5  H          6.8190   -3.3760   -3.2070 H       1  UNL1        0.2960
      6  C          7.6630   -1.2810   -0.6340 C.3     1  UNL1        0.0470
      7  C          6.7320   -0.2470   -0.1130 C.2     1  UNL1       -0.0470
      8  C          6.2370   -0.3280    1.1810 C.2     1  UNL1        0.0040
      9  C          6.3050    0.8270   -0.8730 C.2     1  UNL1        0.0040
     10  C          5.3650    0.6080    1.6890 C.2     1  UNL1        0.0000
     11  C          5.4320    1.7630   -0.3620 C.2     1  UNL1        0.0000
     12  C          4.9440    1.6750    0.9220 C.2     1  UNL1        0.0000
@<TRIPOS>BOND
     1     4     5    1
     2     4     2    1
     3     3     2    2
     4     2     1    1
     5     1     6    1
     6     9    11    1
     7     9     7    2
     8     6     7    1
     9    11    12    2
    10     7     8    1
    11    12    10    1
    12     8    10    2
