MODEL 1
REMARK VINA RESULT:      -7.3      0.000      0.000
REMARK SMILES O=C(O)CCc1ccccc1
REMARK SMILES IDX 4 1 2 2 1 3 3 4 5 6 6 7 7 8 11 9 8 10 10 11 9 12
REMARK H PARENT 3 5
REMARK Flexibility Score: inf
ROOT
ATOM      1  C   UNL     1       8.403  -0.627  -2.169  1.00  0.00     0.127 C 
ENDROOT
BRANCH   1   2
ATOM      2  C   UNL     1       8.434  -1.904  -2.903  1.00  0.00     0.303 C 
ATOM      3  O   UNL     1       9.537  -2.498  -3.052  1.00  0.00    -0.252 OA
BRANCH   2   4
ATOM      4  O   UNL     1       7.277  -2.486  -3.442  1.00  0.00    -0.481 OA
ATOM      5  H   UNL     1       7.322  -2.878  -4.372  1.00  0.00     0.296 HD
ENDBRANCH   2   4
ENDBRANCH   1   2
BRANCH   1   6
ATOM      6  C   UNL     1       7.017  -0.007  -2.153  1.00  0.00     0.047 C 
BRANCH   6   7
ATOM      7  C   UNL     1       6.480   0.060  -0.769  1.00  0.00    -0.047 A 
ATOM      8  C   UNL     1       5.830   1.200  -0.318  1.00  0.00     0.004 A 
ATOM      9  C   UNL     1       6.602  -0.981   0.133  1.00  0.00     0.004 A 
ATOM     10  C   UNL     1       5.330   1.298   0.961  1.00  0.00     0.000 A 
ATOM     11  C   UNL     1       6.101  -0.881   1.413  1.00  0.00     0.000 A 
ATOM     12  C   UNL     1       5.458   0.253   1.854  1.00  0.00     0.000 A 
ENDBRANCH   6   7
ENDBRANCH   1   6
TORSDOF 4
ENDMDL
MODEL 2
REMARK VINA RESULT:      -7.3      0.099      1.723
REMARK SMILES O=C(O)CCc1ccccc1
REMARK SMILES IDX 4 1 2 2 1 3 3 4 5 6 6 7 7 8 11 9 8 10 10 11 9 12
REMARK H PARENT 3 5
REMARK Flexibility Score: inf
ROOT
ATOM      1  C   UNL     1       8.390  -0.650  -2.124  1.00  0.00     0.127 C 
ENDROOT
BRANCH   1   2
ATOM      2  C   UNL     1       8.396  -1.906  -2.894  1.00  0.00     0.303 C 
ATOM      3  O   UNL     1       7.297  -2.412  -3.249  1.00  0.00    -0.252 OA
BRANCH   2   4
ATOM      4  O   UNL     1       9.585  -2.560  -3.249  1.00  0.00    -0.481 OA
ATOM      5  H   UNL     1       9.894  -2.513  -4.210  1.00  0.00     0.296 HD
ENDBRANCH   2   4
ENDBRANCH   1   2
BRANCH   1   6
ATOM      6  C   UNL     1       7.029   0.023  -2.135  1.00  0.00     0.047 C 
BRANCH   6   7
ATOM      7  C   UNL     1       6.475   0.126  -0.759  1.00  0.00    -0.047 A 
ATOM      8  C   UNL     1       6.614  -0.922   0.140  1.00  0.00     0.004 A 
ATOM      9  C   UNL     1       5.794   1.242  -0.308  1.00  0.00     0.004 A 
ATOM     10  C   UNL     1       6.103  -0.862   1.416  1.00  0.00     0.000 A 
ATOM     11  C   UNL     1       5.283   1.301   0.971  1.00  0.00     0.000 A 
ATOM     12  C   UNL     1       5.425   0.257   1.856  1.00  0.00     0.000 A 
ENDBRANCH   6   7
ENDBRANCH   1   6
TORSDOF 4
ENDMDL
MODEL 3
REMARK VINA RESULT:      -7.1      0.671      1.623
REMARK SMILES O=C(O)CCc1ccccc1
REMARK SMILES IDX 4 1 2 2 1 3 3 4 5 6 6 7 7 8 11 9 8 10 10 11 9 12
REMARK H PARENT 3 5
REMARK Flexibility Score: inf
ROOT
ATOM      1  C   UNL     1       8.240  -0.868  -1.976  1.00  0.00     0.127 C 
ENDROOT
BRANCH   1   2
ATOM      2  C   UNL     1       8.360  -2.005  -2.905  1.00  0.00     0.303 C 
ATOM      3  O   UNL     1       9.496  -2.517  -3.103  1.00  0.00    -0.252 OA
BRANCH   2   4
ATOM      4  O   UNL     1       7.253  -2.541  -3.578  1.00  0.00    -0.481 OA
ATOM      5  H   UNL     1       6.819  -3.376  -3.207  1.00  0.00     0.296 HD
ENDBRANCH   2   4
ENDBRANCH   1   2
BRANCH   1   6
ATOM      6  C   UNL     1       7.663  -1.281  -0.634  1.00  0.00     0.047 C 
BRANCH   6   7
ATOM      7  C   UNL     1       6.732  -0.247  -0.113  1.00  0.00    -0.047 A 
ATOM      8  C   UNL     1       6.237  -0.328   1.181  1.00  0.00     0.004 A 
ATOM      9  C   UNL     1       6.305   0.827  -0.873  1.00  0.00     0.004 A 
ATOM     10  C   UNL     1       5.365   0.608   1.689  1.00  0.00     0.000 A 
ATOM     11  C   UNL     1       5.432   1.763  -0.362  1.00  0.00     0.000 A 
ATOM     12  C   UNL     1       4.944   1.675   0.922  1.00  0.00     0.000 A 
ENDBRANCH   6   7
ENDBRANCH   1   6
TORSDOF 4
ENDMDL
MODEL 4
REMARK VINA RESULT:      -6.8      3.402      5.080
REMARK SMILES O=C(O)CCc1ccccc1
REMARK SMILES IDX 4 1 2 2 1 3 3 4 5 6 6 7 7 8 11 9 8 10 10 11 9 12
REMARK H PARENT 3 5
REMARK Flexibility Score: inf
ROOT
ATOM      1  C   UNL     1       4.978   1.764   0.702  1.00  0.00     0.127 C 
ENDROOT
BRANCH   1   2
ATOM      2  C   UNL     1       4.458   1.116   1.919  1.00  0.00     0.303 C 
ATOM      3  O   UNL     1       5.147   0.219   2.476  1.00  0.00    -0.252 OA
BRANCH   2   4
ATOM      4  O   UNL     1       3.221   1.463   2.481  1.00  0.00    -0.481 OA
ATOM      5  H   UNL     1       3.022   1.172   3.429  1.00  0.00     0.296 HD
ENDBRANCH   2   4
ENDBRANCH   1   2
BRANCH   1   6
ATOM      6  C   UNL     1       6.489   1.902   0.726  1.00  0.00     0.047 C 
BRANCH   6   7
ATOM      7  C   UNL     1       7.116   1.090  -0.349  1.00  0.00    -0.047 A 
ATOM      8  C   UNL     1       8.471   1.205  -0.625  1.00  0.00     0.004 A 
ATOM      9  C   UNL     1       6.400   0.198  -1.126  1.00  0.00     0.004 A 
ATOM     10  C   UNL     1       9.078   0.475  -1.620  1.00  0.00     0.000 A 
ATOM     11  C   UNL     1       7.010  -0.534  -2.123  1.00  0.00     0.000 A 
ATOM     12  C   UNL     1       8.355  -0.412  -2.392  1.00  0.00     0.000 A 
ENDBRANCH   6   7
ENDBRANCH   1   6
TORSDOF 4
ENDMDL
MODEL 5
REMARK VINA RESULT:      -6.6      1.927      2.670
REMARK SMILES O=C(O)CCc1ccccc1
REMARK SMILES IDX 4 1 2 2 1 3 3 4 5 6 6 7 7 8 11 9 8 10 10 11 9 12
REMARK H PARENT 3 5
REMARK Flexibility Score: inf
ROOT
ATOM      1  C   UNL     1       8.243   0.174  -2.239  1.00  0.00     0.127 C 
ENDROOT
BRANCH   1   2
ATOM      2  C   UNL     1       9.353   0.341  -1.284  1.00  0.00     0.303 C 
ATOM      3  O   UNL     1       9.421  -0.425  -0.285  1.00  0.00    -0.252 OA
BRANCH   2   4
ATOM      4  O   UNL     1      10.340   1.323  -1.449  1.00  0.00    -0.481 OA
ATOM      5  H   UNL     1      11.018   1.208  -2.190  1.00  0.00     0.296 HD
ENDBRANCH   2   4
ENDBRANCH   1   2
BRANCH   1   6
ATOM      6  C   UNL     1       7.071  -0.575  -1.632  1.00  0.00     0.047 C 
BRANCH   6   7
ATOM      7  C   UNL     1       6.319   0.290  -0.685  1.00  0.00    -0.047 A 
ATOM      8  C   UNL     1       6.088  -0.122   0.619  1.00  0.00     0.004 A 
ATOM      9  C   UNL     1       5.808   1.524  -1.044  1.00  0.00     0.004 A 
ATOM     10  C   UNL     1       5.387   0.651   1.516  1.00  0.00     0.000 A 
ATOM     11  C   UNL     1       5.106   2.297  -0.144  1.00  0.00     0.000 A 
ATOM     12  C   UNL     1       4.880   1.881   1.148  1.00  0.00     0.000 A 
ENDBRANCH   6   7
ENDBRANCH   1   6
TORSDOF 4
ENDMDL
