@<TRIPOS>MOLECULE
/home/cewinharhar/GITHUB/reincatalyze/data/processed/docking_pred/2023-Apr-25-2248_maxeplen10_maxtrainstep1000_exh16_gamma099_lrac3e-4_lrcr1e-3/5bd4159c0713ad18fb2d2a846002564f6b7df27c_ligand_2.pdbqt
 12 12 0 0 0
SMALL
GASTEIGER

@<TRIPOS>ATOM
      1  C          8.2430    0.1740   -2.2390 C.3     1  UNL1        0.1270
      2  C          9.3530    0.3410   -1.2840 C.2     1  UNL1        0.3030
      3  O          9.4210   -0.4250   -0.2850 O.2     1  UNL1       -0.2520
      4  O         10.3400    1.3230   -1.4490 O.3     1  UNL1       -0.4810
      5  H         11.0180    1.2080   -2.1900 H       1  UNL1        0.2960
      6  C          7.0710   -0.5750   -1.6320 C.3     1  UNL1        0.0470
      7  C          6.3190    0.2900   -0.6850 C.2     1  UNL1       -0.0470
      8  C          6.0880   -0.1220    0.6190 C.2     1  UNL1        0.0040
      9  C          5.8080    1.5240   -1.0440 C.2     1  UNL1        0.0040
     10  C          5.3870    0.6510    1.5160 C.2     1  UNL1        0.0000
     11  C          5.1060    2.2970   -0.1440 C.2     1  UNL1        0.0000
     12  C          4.8800    1.8810    1.1480 C.2     1  UNL1        0.0000
@<TRIPOS>BOND
     1     1     6    1
     2     1     2    1
     3     5     4    1
     4     6     7    1
     5     4     2    1
     6     2     3    2
     7     9     7    2
     8     9    11    1
     9     7     8    1
    10    11    12    2
    11     8    10    2
    12    12    10    1
