@<TRIPOS>MOLECULE
/home/cewinharhar/GITHUB/reincatalyze/data/processed/docking_pred/2023-Apr-25-2248_maxeplen10_maxtrainstep1000_exh16_gamma099_lrac3e-4_lrcr1e-3/5bd4159c0713ad18fb2d2a846002564f6b7df27c_ligand_2.pdbqt
 12 12 0 0 0
SMALL
GASTEIGER

@<TRIPOS>ATOM
      1  C          4.9780    1.7640    0.7020 C.3     1  UNL1        0.1270
      2  C          4.4580    1.1160    1.9190 C.2     1  UNL1        0.3030
      3  O          5.1470    0.2190    2.4760 O.2     1  UNL1       -0.2520
      4  O          3.2210    1.4630    2.4810 O.3     1  UNL1       -0.4810
      5  H          3.0220    1.1720    3.4290 H       1  UNL1        0.2960
      6  C          6.4890    1.9020    0.7260 C.3     1  UNL1        0.0470
      7  C          7.1160    1.0900   -0.3490 C.2     1  UNL1       -0.0470
      8  C          8.4710    1.2050   -0.6250 C.2     1  UNL1        0.0040
      9  C          6.4000    0.1980   -1.1260 C.2     1  UNL1        0.0040
     10  C          9.0780    0.4750   -1.6200 C.2     1  UNL1        0.0000
     11  C          7.0100   -0.5340   -2.1230 C.2     1  UNL1        0.0000
     12  C          8.3550   -0.4120   -2.3920 C.2     1  UNL1        0.0000
@<TRIPOS>BOND
     1    12    11    2
     2    12    10    1
     3    11     9    1
     4    10     8    2
     5     9     7    2
     6     8     7    1
     7     7     6    1
     8     1     6    1
     9     1     2    1
    10     2     3    2
    11     2     4    1
    12     4     5    1
