@<TRIPOS>MOLECULE
/home/cewinharhar/GITHUB/reincatalyze/data/processed/docking_pred/2023-Apr-25-2248_maxeplen10_maxtrainstep1000_exh16_gamma099_lrac3e-4_lrcr1e-3/5bd4159c0713ad18fb2d2a846002564f6b7df27c_ligand_2.pdbqt
 12 12 0 0 0
SMALL
GASTEIGER

@<TRIPOS>ATOM
      1  C          8.4030   -0.6270   -2.1690 C.3     1  UNL1        0.1270
      2  C          8.4340   -1.9040   -2.9030 C.2     1  UNL1        0.3030
      3  O          9.5370   -2.4980   -3.0520 O.2     1  UNL1       -0.2520
      4  O          7.2770   -2.4860   -3.4420 O.3     1  UNL1       -0.4810
      5  H          7.3220   -2.8780   -4.3720 H       1  UNL1        0.2960
      6  C          7.0170   -0.0070   -2.1530 C.3     1  UNL1        0.0470
      7  C          6.4800    0.0600   -0.7690 C.2     1  UNL1       -0.0470
      8  C          5.8300    1.2000   -0.3180 C.2     1  UNL1        0.0040
      9  C          6.6020   -0.9810    0.1330 C.2     1  UNL1        0.0040
     10  C          5.3300    1.2980    0.9610 C.2     1  UNL1        0.0000
     11  C          6.1010   -0.8810    1.4130 C.2     1  UNL1        0.0000
     12  C          5.4580    0.2530    1.8540 C.2     1  UNL1        0.0000
@<TRIPOS>BOND
     1     5     4    1
     2     4     2    1
     3     3     2    2
     4     2     1    1
     5     1     6    1
     6     6     7    1
     7     7     8    2
     8     7     9    1
     9     8    10    1
    10     9    11    2
    11    10    12    2
    12    11    12    1
