@<TRIPOS>MOLECULE
/home/cewinharhar/GITHUB/reincatalyze/data/processed/docking_pred/2023-Apr-25-2248_maxeplen10_maxtrainstep1000_exh16_gamma099_lrac3e-4_lrcr1e-3/5be73a077ea639c014f12358d863af943f9e92ef_ligand_2.pdbqt
 12 12 0 0 0
SMALL
GASTEIGER

@<TRIPOS>ATOM
      1  C          4.9850    1.7850    0.7310 C.3     1  UNL1        0.1270
      2  C          4.4510    1.1100    1.9270 C.2     1  UNL1        0.3030
      3  O          5.1270    0.1900    2.4630 O.2     1  UNL1       -0.2520
      4  O          3.2160    1.4570    2.4940 O.3     1  UNL1       -0.4810
      5  H          2.7620    0.7930    3.1060 H       1  UNL1        0.2960
      6  C          6.4960    1.9280    0.7780 C.3     1  UNL1        0.0470
      7  C          7.1370    1.1650   -0.3250 C.2     1  UNL1       -0.0470
      8  C          6.3880    0.3140   -1.1260 C.2     1  UNL1        0.0040
      9  C          8.4880    1.2480   -0.6060 C.2     1  UNL1        0.0040
     10  C          6.9540   -0.4130   -2.1480 C.2     1  UNL1        0.0000
     11  C          9.0530    0.5190   -1.6300 C.2     1  UNL1        0.0000
     12  C          8.3040   -0.3240   -2.4190 C.2     1  UNL1        0.0000
@<TRIPOS>BOND
     1    12    10    2
     2    12    11    1
     3    10     8    1
     4    11     9    2
     5     8     7    2
     6     9     7    1
     7     7     6    1
     8     1     6    1
     9     1     2    1
    10     2     3    2
    11     2     4    1
    12     4     5    1
