@<TRIPOS>MOLECULE
/home/cewinharhar/GITHUB/reincatalyze/data/processed/docking_pred/2023-Apr-25-2248_maxeplen10_maxtrainstep1000_exh16_gamma099_lrac3e-4_lrcr1e-3/5be73a077ea639c014f12358d863af943f9e92ef_ligand_2.pdbqt
 12 12 0 0 0
SMALL
GASTEIGER

@<TRIPOS>ATOM
      1  C          8.7720    0.7190   -1.5610 C.3     1  UNL1        0.1270
      2  C          9.8910   -0.1370   -1.1280 C.2     1  UNL1        0.3030
      3  O          9.7290   -1.3870   -1.0950 O.2     1  UNL1       -0.2520
      4  O         11.1340    0.3920   -0.7510 O.3     1  UNL1       -0.4810
      5  H         11.6410    0.9570   -1.4180 H       1  UNL1        0.2960
      6  C          7.4660   -0.0490   -1.6560 C.3     1  UNL1        0.0470
      7  C          6.6300    0.1710   -0.4470 C.2     1  UNL1       -0.0470
      8  C          5.8900    1.3360   -0.3010 C.2     1  UNL1        0.0040
      9  C          6.5490   -0.7450    0.5850 C.2     1  UNL1        0.0040
     10  C          5.1140    1.5750    0.8110 C.2     1  UNL1        0.0000
     11  C          5.7720   -0.5050    1.6980 C.2     1  UNL1        0.0000
     12  C          5.0420    0.6540    1.8360 C.2     1  UNL1        0.0000
@<TRIPOS>BOND
     1     6     1    1
     2     6     7    1
     3     1     2    1
     4     5     4    1
     5     2     3    2
     6     2     4    1
     7     7     8    2
     8     7     9    1
     9     8    10    1
    10     9    11    2
    11    10    12    2
    12    11    12    1
