@<TRIPOS>MOLECULE
/home/cewinharhar/GITHUB/reincatalyze/data/processed/docking_pred/2023-Apr-25-2248_maxeplen10_maxtrainstep1000_exh16_gamma099_lrac3e-4_lrcr1e-3/5be73a077ea639c014f12358d863af943f9e92ef_ligand_2.pdbqt
 12 12 0 0 0
SMALL
GASTEIGER

@<TRIPOS>ATOM
      1  C          8.4730   -0.6800   -2.0810 C.3     1  UNL1        0.1270
      2  C          8.5150   -1.9190   -2.8780 C.2     1  UNL1        0.3030
      3  O          9.6280   -2.4750   -3.0860 O.2     1  UNL1       -0.2520
      4  O          7.3590   -2.5030   -3.4140 O.3     1  UNL1       -0.4810
      5  H          6.5920   -1.9010   -3.6810 H       1  UNL1        0.2960
      6  C          7.1220    0.0080   -2.1620 C.3     1  UNL1        0.0470
      7  C          6.5240    0.1670   -0.8100 C.2     1  UNL1       -0.0470
      8  C          6.6200   -0.8480    0.1300 C.2     1  UNL1        0.0040
      9  C          5.8440    1.3070   -0.4220 C.2     1  UNL1        0.0040
     10  C          6.0680   -0.7360    1.3860 C.2     1  UNL1        0.0000
     11  C          5.2920    1.4190    0.8360 C.2     1  UNL1        0.0000
     12  C          5.3900    0.4060    1.7630 C.2     1  UNL1        0.0000
@<TRIPOS>BOND
     1     5     4    1
     2     4     2    1
     3     3     2    2
     4     2     1    1
     5     6     1    1
     6     6     7    1
     7     7     9    2
     8     7     8    1
     9     9    11    1
    10     8    10    2
    11    11    12    2
    12    10    12    1
