@<TRIPOS>MOLECULE
/home/cewinharhar/GITHUB/reincatalyze/data/processed/docking_pred/2023-Apr-25-2248_maxeplen10_maxtrainstep1000_exh16_gamma099_lrac3e-4_lrcr1e-3/5be73a077ea639c014f12358d863af943f9e92ef_ligand_2.pdbqt
 12 12 0 0 0
SMALL
GASTEIGER

@<TRIPOS>ATOM
      1  C          5.8210    0.7350    0.0700 C.3     1  UNL1        0.1270
      2  C          5.1600    1.3440    1.2370 C.2     1  UNL1        0.3030
      3  O          5.0080    2.5960    1.2710 O.2     1  UNL1       -0.2520
      4  O          4.6920    0.5790    2.3150 O.3     1  UNL1       -0.4810
      5  H          3.9530    0.9580    2.8920 H       1  UNL1        0.2960
      6  C          6.6080   -0.5090    0.4400 C.3     1  UNL1        0.0470
      7  C          8.0490   -0.3460    0.1130 C.2     1  UNL1       -0.0470
      8  C          9.0020   -1.1810    0.6780 C.2     1  UNL1        0.0040
      9  C          8.5150    0.6330   -0.7450 C.2     1  UNL1        0.0040
     10  C         10.3440   -1.0480    0.4040 C.2     1  UNL1        0.0000
     11  C          9.8590    0.7650   -1.0190 C.2     1  UNL1        0.0000
     12  C         10.7990   -0.0670   -0.4540 C.2     1  UNL1        0.0000
@<TRIPOS>BOND
     1    11     9    1
     2    11    12    2
     3     9     7    2
     4    12    10    1
     5     1     6    1
     6     1     2    1
     7     7     6    1
     8     7     8    1
     9    10     8    2
    10     2     3    2
    11     2     4    1
    12     4     5    1
