@<TRIPOS>MOLECULE
/home/cewinharhar/GITHUB/reincatalyze/data/processed/docking_pred/2023-Apr-25-2248_maxeplen10_maxtrainstep1000_exh16_gamma099_lrac3e-4_lrcr1e-3/5c54d156b22251270ecdcbd3d684e6dc7dd5ede7_ligand_2.pdbqt
 12 12 0 0 0
SMALL
GASTEIGER

@<TRIPOS>ATOM
      1  C          8.4030   -0.6960   -2.0830 C.3     1  UNL1        0.1270
      2  C          8.4240   -1.9340   -2.8810 C.2     1  UNL1        0.3030
      3  O          9.5220   -2.5280   -3.0620 O.2     1  UNL1       -0.2520
      4  O          7.2620   -2.4780   -3.4480 O.3     1  UNL1       -0.4810
      5  H          6.3880   -1.9870   -3.3230 H       1  UNL1        0.2960
      6  C          7.0360   -0.0340   -2.0850 C.3     1  UNL1        0.0470
      7  C          6.4760    0.0350   -0.7100 C.2     1  UNL1       -0.0470
      8  C          5.8220    1.1760   -0.2700 C.2     1  UNL1        0.0040
      9  C          6.5800   -1.0060    0.1940 C.2     1  UNL1        0.0040
     10  C          5.3010    1.2760    1.0000 C.2     1  UNL1        0.0000
     11  C          6.0580   -0.9050    1.4660 C.2     1  UNL1        0.0000
     12  C          5.4120    0.2310    1.8960 C.2     1  UNL1        0.0000
@<TRIPOS>BOND
     1     4     5    1
     2     4     2    1
     3     3     2    2
     4     2     1    1
     5     6     1    1
     6     6     7    1
     7     7     8    2
     8     7     9    1
     9     8    10    1
    10     9    11    2
    11    10    12    2
    12    11    12    1
