@<TRIPOS>MOLECULE
/home/cewinharhar/GITHUB/reincatalyze/data/processed/docking_pred/2023-Apr-25-2248_maxeplen10_maxtrainstep1000_exh16_gamma099_lrac3e-4_lrcr1e-3/5c54d156b22251270ecdcbd3d684e6dc7dd5ede7_ligand_2.pdbqt
 12 12 0 0 0
SMALL
GASTEIGER

@<TRIPOS>ATOM
      1  C          5.5430    2.9080    0.0030 C.3     1  UNL1        0.1270
      2  C          6.3040    3.8640    0.8270 C.2     1  UNL1        0.3030
      3  O          6.9650    4.7740    0.2560 O.2     1  UNL1       -0.2520
      4  O          6.3180    3.7990    2.2280 O.3     1  UNL1       -0.4810
      5  H          7.1990    3.9190    2.7080 H       1  UNL1        0.2960
      6  C          4.8590    1.8440    0.8430 C.3     1  UNL1        0.0470
      7  C          5.6770    0.6050    0.9020 C.2     1  UNL1       -0.0470
      8  C          5.7450   -0.1430    2.0690 C.2     1  UNL1        0.0040
      9  C          6.4110    0.1400   -0.1740 C.2     1  UNL1        0.0040
     10  C          6.5010   -1.2890    2.1590 C.2     1  UNL1        0.0000
     11  C          7.1680   -1.0080   -0.0820 C.2     1  UNL1        0.0000
     12  C          7.2310   -1.7440    1.0790 C.2     1  UNL1        0.0000
@<TRIPOS>BOND
     1     9    11    1
     2     9     7    2
     3    11    12    2
     4     1     2    1
     5     1     6    1
     6     3     2    2
     7     2     4    1
     8     6     7    1
     9     7     8    1
    10    12    10    1
    11     8    10    2
    12     4     5    1
