@<TRIPOS>MOLECULE
/home/cewinharhar/GITHUB/reincatalyze/data/processed/docking_pred/2023-Apr-25-2248_maxeplen10_maxtrainstep1000_exh16_gamma099_lrac3e-4_lrcr1e-3/5c54d156b22251270ecdcbd3d684e6dc7dd5ede7_ligand_2.pdbqt
 12 12 0 0 0
SMALL
GASTEIGER

@<TRIPOS>ATOM
      1  C          4.9850    1.7850    0.7410 C.3     1  UNL1        0.1270
      2  C          4.4500    1.1080    1.9360 C.2     1  UNL1        0.3030
      3  O          5.1270    0.1890    2.4740 O.2     1  UNL1       -0.2520
      4  O          3.2120    1.4510    2.4990 O.3     1  UNL1       -0.4810
      5  H          3.1810    2.2000    3.1770 H       1  UNL1        0.2960
      6  C          6.5000    1.8880    0.7700 C.3     1  UNL1        0.0470
      7  C          7.1090    1.0860   -0.3230 C.2     1  UNL1       -0.0470
      8  C          8.4530    1.2260   -0.6380 C.2     1  UNL1        0.0040
      9  C          6.3870    0.1810   -1.0790 C.2     1  UNL1        0.0040
     10  C          9.0440    0.5060   -1.6510 C.2     1  UNL1        0.0000
     11  C          6.9810   -0.5390   -2.0930 C.2     1  UNL1        0.0000
     12  C          8.3140   -0.3940   -2.4010 C.2     1  UNL1        0.0000
@<TRIPOS>BOND
     1    12    11    2
     2    12    10    1
     3    11     9    1
     4    10     8    2
     5     9     7    2
     6     8     7    1
     7     7     6    1
     8     1     6    1
     9     1     2    1
    10     2     3    2
    11     2     4    1
    12     4     5    1
