MODEL 1
REMARK VINA RESULT:      -7.3      0.000      0.000
REMARK SMILES O=C(O)CCc1ccccc1
REMARK SMILES IDX 4 1 2 2 1 3 3 4 5 6 6 7 7 8 11 9 8 10 10 11 9 12
REMARK H PARENT 3 5
REMARK Flexibility Score: inf
ROOT
ATOM      1  C   UNL     1       8.408  -0.656  -2.132  1.00  0.00     0.127 C 
ENDROOT
BRANCH   1   2
ATOM      2  C   UNL     1       8.437  -1.915  -2.899  1.00  0.00     0.303 C 
ATOM      3  O   UNL     1       9.540  -2.497  -3.078  1.00  0.00    -0.252 OA
BRANCH   2   4
ATOM      4  O   UNL     1       7.276  -2.489  -3.437  1.00  0.00    -0.481 OA
ATOM      5  H   UNL     1       6.417  -2.429  -2.908  1.00  0.00     0.296 HD
ENDBRANCH   2   4
ENDBRANCH   1   2
BRANCH   1   6
ATOM      6  C   UNL     1       7.034  -0.010  -2.141  1.00  0.00     0.047 C 
BRANCH   6   7
ATOM      7  C   UNL     1       6.486   0.096  -0.764  1.00  0.00    -0.047 A 
ATOM      8  C   UNL     1       6.611  -0.957   0.131  1.00  0.00     0.004 A 
ATOM      9  C   UNL     1       5.826   1.222  -0.306  1.00  0.00     0.004 A 
ATOM     10  C   UNL     1       6.106  -0.893   1.410  1.00  0.00     0.000 A 
ATOM     11  C   UNL     1       5.321   1.284   0.975  1.00  0.00     0.000 A 
ATOM     12  C   UNL     1       5.448   0.235   1.857  1.00  0.00     0.000 A 
ENDBRANCH   6   7
ENDBRANCH   1   6
TORSDOF 4
ENDMDL
MODEL 2
REMARK VINA RESULT:      -7.3      0.058      1.422
REMARK SMILES O=C(O)CCc1ccccc1
REMARK SMILES IDX 4 1 2 2 1 3 3 4 5 6 6 7 7 8 11 9 8 10 10 11 9 12
REMARK H PARENT 3 5
REMARK Flexibility Score: inf
ROOT
ATOM      1  C   UNL     1       8.403  -0.696  -2.083  1.00  0.00     0.127 C 
ENDROOT
BRANCH   1   2
ATOM      2  C   UNL     1       8.424  -1.934  -2.881  1.00  0.00     0.303 C 
ATOM      3  O   UNL     1       9.522  -2.528  -3.062  1.00  0.00    -0.252 OA
BRANCH   2   4
ATOM      4  O   UNL     1       7.262  -2.478  -3.448  1.00  0.00    -0.481 OA
ATOM      5  H   UNL     1       6.388  -1.987  -3.323  1.00  0.00     0.296 HD
ENDBRANCH   2   4
ENDBRANCH   1   2
BRANCH   1   6
ATOM      6  C   UNL     1       7.036  -0.034  -2.085  1.00  0.00     0.047 C 
BRANCH   6   7
ATOM      7  C   UNL     1       6.476   0.035  -0.710  1.00  0.00    -0.047 A 
ATOM      8  C   UNL     1       5.822   1.176  -0.270  1.00  0.00     0.004 A 
ATOM      9  C   UNL     1       6.580  -1.006   0.194  1.00  0.00     0.004 A 
ATOM     10  C   UNL     1       5.301   1.276   1.000  1.00  0.00     0.000 A 
ATOM     11  C   UNL     1       6.058  -0.905   1.466  1.00  0.00     0.000 A 
ATOM     12  C   UNL     1       5.412   0.231   1.896  1.00  0.00     0.000 A 
ENDBRANCH   6   7
ENDBRANCH   1   6
TORSDOF 4
ENDMDL
MODEL 3
REMARK VINA RESULT:      -7.1      0.685      1.911
REMARK SMILES O=C(O)CCc1ccccc1
REMARK SMILES IDX 4 1 2 2 1 3 3 4 5 6 6 7 7 8 11 9 8 10 10 11 9 12
REMARK H PARENT 3 5
REMARK Flexibility Score: inf
ROOT
ATOM      1  C   UNL     1       8.245  -1.000  -1.765  1.00  0.00     0.127 C 
ENDROOT
BRANCH   1   2
ATOM      2  C   UNL     1       8.327  -2.026  -2.820  1.00  0.00     0.303 C 
ATOM      3  O   UNL     1       7.263  -2.440  -3.356  1.00  0.00    -0.252 OA
BRANCH   2   4
ATOM      4  O   UNL     1       9.550  -2.559  -3.251  1.00  0.00    -0.481 OA
ATOM      5  H   UNL     1       9.600  -2.970  -4.173  1.00  0.00     0.296 HD
ENDBRANCH   2   4
ENDBRANCH   1   2
BRANCH   1   6
ATOM      6  C   UNL     1       7.422  -1.464  -0.576  1.00  0.00     0.047 C 
BRANCH   6   7
ATOM      7  C   UNL     1       6.571  -0.362  -0.055  1.00  0.00    -0.047 A 
ATOM      8  C   UNL     1       6.259   0.729  -0.853  1.00  0.00     0.004 A 
ATOM      9  C   UNL     1       6.061  -0.355   1.230  1.00  0.00     0.004 A 
ATOM     10  C   UNL     1       5.482   1.769  -0.397  1.00  0.00     0.000 A 
ATOM     11  C   UNL     1       5.283   0.688   1.686  1.00  0.00     0.000 A 
ATOM     12  C   UNL     1       4.979   1.768   0.889  1.00  0.00     0.000 A 
ENDBRANCH   6   7
ENDBRANCH   1   6
TORSDOF 4
ENDMDL
MODEL 4
REMARK VINA RESULT:      -6.8      3.400      5.099
REMARK SMILES O=C(O)CCc1ccccc1
REMARK SMILES IDX 4 1 2 2 1 3 3 4 5 6 6 7 7 8 11 9 8 10 10 11 9 12
REMARK H PARENT 3 5
REMARK Flexibility Score: inf
ROOT
ATOM      1  C   UNL     1       4.985   1.785   0.741  1.00  0.00     0.127 C 
ENDROOT
BRANCH   1   2
ATOM      2  C   UNL     1       4.450   1.108   1.936  1.00  0.00     0.303 C 
ATOM      3  O   UNL     1       5.127   0.189   2.474  1.00  0.00    -0.252 OA
BRANCH   2   4
ATOM      4  O   UNL     1       3.212   1.451   2.499  1.00  0.00    -0.481 OA
ATOM      5  H   UNL     1       3.181   2.200   3.177  1.00  0.00     0.296 HD
ENDBRANCH   2   4
ENDBRANCH   1   2
BRANCH   1   6
ATOM      6  C   UNL     1       6.500   1.888   0.770  1.00  0.00     0.047 C 
BRANCH   6   7
ATOM      7  C   UNL     1       7.109   1.086  -0.323  1.00  0.00    -0.047 A 
ATOM      8  C   UNL     1       8.453   1.226  -0.638  1.00  0.00     0.004 A 
ATOM      9  C   UNL     1       6.387   0.181  -1.079  1.00  0.00     0.004 A 
ATOM     10  C   UNL     1       9.044   0.506  -1.651  1.00  0.00     0.000 A 
ATOM     11  C   UNL     1       6.981  -0.539  -2.093  1.00  0.00     0.000 A 
ATOM     12  C   UNL     1       8.314  -0.394  -2.401  1.00  0.00     0.000 A 
ENDBRANCH   6   7
ENDBRANCH   1   6
TORSDOF 4
ENDMDL
MODEL 5
REMARK VINA RESULT:      -6.7      3.832      4.920
REMARK SMILES O=C(O)CCc1ccccc1
REMARK SMILES IDX 4 1 2 2 1 3 3 4 5 6 6 7 7 8 11 9 8 10 10 11 9 12
REMARK H PARENT 3 5
REMARK Flexibility Score: inf
ROOT
ATOM      1  C   UNL     1       5.543   2.908   0.003  1.00  0.00     0.127 C 
ENDROOT
BRANCH   1   2
ATOM      2  C   UNL     1       6.304   3.864   0.827  1.00  0.00     0.303 C 
ATOM      3  O   UNL     1       6.965   4.774   0.256  1.00  0.00    -0.252 OA
BRANCH   2   4
ATOM      4  O   UNL     1       6.318   3.799   2.228  1.00  0.00    -0.481 OA
ATOM      5  H   UNL     1       7.199   3.919   2.708  1.00  0.00     0.296 HD
ENDBRANCH   2   4
ENDBRANCH   1   2
BRANCH   1   6
ATOM      6  C   UNL     1       4.859   1.844   0.843  1.00  0.00     0.047 C 
BRANCH   6   7
ATOM      7  C   UNL     1       5.677   0.605   0.902  1.00  0.00    -0.047 A 
ATOM      8  C   UNL     1       5.745  -0.143   2.069  1.00  0.00     0.004 A 
ATOM      9  C   UNL     1       6.411   0.140  -0.174  1.00  0.00     0.004 A 
ATOM     10  C   UNL     1       6.501  -1.289   2.159  1.00  0.00     0.000 A 
ATOM     11  C   UNL     1       7.168  -1.008  -0.082  1.00  0.00     0.000 A 
ATOM     12  C   UNL     1       7.231  -1.744   1.079  1.00  0.00     0.000 A 
ENDBRANCH   6   7
ENDBRANCH   1   6
TORSDOF 4
ENDMDL
