@<TRIPOS>MOLECULE
/home/cewinharhar/GITHUB/reincatalyze/data/processed/docking_pred/2023-Apr-25-2248_maxeplen10_maxtrainstep1000_exh16_gamma099_lrac3e-4_lrcr1e-3/5c54d156b22251270ecdcbd3d684e6dc7dd5ede7_ligand_2.pdbqt
 12 12 0 0 0
SMALL
GASTEIGER

@<TRIPOS>ATOM
      1  C          8.2450   -1.0000   -1.7650 C.3     1  UNL1        0.1270
      2  C          8.3270   -2.0260   -2.8200 C.2     1  UNL1        0.3030
      3  O          7.2630   -2.4400   -3.3560 O.2     1  UNL1       -0.2520
      4  O          9.5500   -2.5590   -3.2510 O.3     1  UNL1       -0.4810
      5  H          9.6000   -2.9700   -4.1730 H       1  UNL1        0.2960
      6  C          7.4220   -1.4640   -0.5760 C.3     1  UNL1        0.0470
      7  C          6.5710   -0.3620   -0.0550 C.2     1  UNL1       -0.0470
      8  C          6.2590    0.7290   -0.8530 C.2     1  UNL1        0.0040
      9  C          6.0610   -0.3550    1.2300 C.2     1  UNL1        0.0040
     10  C          5.4820    1.7690   -0.3970 C.2     1  UNL1        0.0000
     11  C          5.2830    0.6880    1.6860 C.2     1  UNL1        0.0000
     12  C          4.9790    1.7680    0.8890 C.2     1  UNL1        0.0000
@<TRIPOS>BOND
     1     5     4    1
     2     3     2    2
     3     4     2    1
     4     2     1    1
     5     1     6    1
     6     8    10    1
     7     8     7    2
     8     6     7    1
     9    10    12    2
    10     7     9    1
    11    12    11    1
    12     9    11    2
