MODEL 1
REMARK VINA RESULT:      -7.3      0.000      0.000
REMARK SMILES O=C(O)CCc1ccccc1
REMARK SMILES IDX 4 1 2 2 1 3 3 4 5 6 6 7 7 8 11 9 8 10 10 11 9 12
REMARK H PARENT 3 5
REMARK Flexibility Score: inf
ROOT
ATOM      1  C   UNL     1       8.399  -0.666  -2.104  1.00  0.00     0.127 C 
ENDROOT
BRANCH   1   2
ATOM      2  C   UNL     1       8.426  -1.912  -2.890  1.00  0.00     0.303 C 
ATOM      3  O   UNL     1       9.529  -2.493  -3.079  1.00  0.00    -0.252 OA
BRANCH   2   4
ATOM      4  O   UNL     1       7.265  -2.478  -3.435  1.00  0.00    -0.481 OA
ATOM      5  H   UNL     1       7.357  -3.109  -4.220  1.00  0.00     0.296 HD
ENDBRANCH   2   4
ENDBRANCH   1   2
BRANCH   1   6
ATOM      6  C   UNL     1       7.026  -0.017  -2.106  1.00  0.00     0.047 C 
BRANCH   6   7
ATOM      7  C   UNL     1       6.480   0.077  -0.727  1.00  0.00    -0.047 A 
ATOM      8  C   UNL     1       6.597  -0.988   0.155  1.00  0.00     0.004 A 
ATOM      9  C   UNL     1       5.828   1.202  -0.255  1.00  0.00     0.004 A 
ATOM     10  C   UNL     1       6.093  -0.936   1.434  1.00  0.00     0.000 A 
ATOM     11  C   UNL     1       5.323   1.252   1.027  1.00  0.00     0.000 A 
ATOM     12  C   UNL     1       5.443   0.191   1.895  1.00  0.00     0.000 A 
ENDBRANCH   6   7
ENDBRANCH   1   6
TORSDOF 4
ENDMDL
MODEL 2
REMARK VINA RESULT:      -7.1      0.881      1.061
REMARK SMILES O=C(O)CCc1ccccc1
REMARK SMILES IDX 4 1 2 2 1 3 3 4 5 6 6 7 7 8 11 9 8 10 10 11 9 12
REMARK H PARENT 3 5
REMARK Flexibility Score: inf
ROOT
ATOM      1  C   UNL     1       7.296  -1.244  -2.238  1.00  0.00     0.127 C 
ENDROOT
BRANCH   1   2
ATOM      2  C   UNL     1       8.735  -1.388  -2.519  1.00  0.00     0.303 C 
ATOM      3  O   UNL     1       9.536  -0.521  -2.074  1.00  0.00    -0.252 OA
BRANCH   2   4
ATOM      4  O   UNL     1       9.248  -2.459  -3.264  1.00  0.00    -0.481 OA
ATOM      5  H   UNL     1      10.007  -3.001  -2.872  1.00  0.00     0.296 HD
ENDBRANCH   2   4
ENDBRANCH   1   2
BRANCH   1   6
ATOM      6  C   UNL     1       6.897   0.204  -2.013  1.00  0.00     0.047 C 
BRANCH   6   7
ATOM      7  C   UNL     1       6.292   0.386  -0.668  1.00  0.00    -0.047 A 
ATOM      8  C   UNL     1       6.411  -0.600   0.302  1.00  0.00     0.004 A 
ATOM      9  C   UNL     1       5.582   1.519  -0.314  1.00  0.00     0.004 A 
ATOM     10  C   UNL     1       5.853  -0.465   1.552  1.00  0.00     0.000 A 
ATOM     11  C   UNL     1       5.024   1.652   0.939  1.00  0.00     0.000 A 
ATOM     12  C   UNL     1       5.145   0.669   1.895  1.00  0.00     0.000 A 
ENDBRANCH   6   7
ENDBRANCH   1   6
TORSDOF 4
ENDMDL
MODEL 3
REMARK VINA RESULT:      -6.8      3.395      5.095
REMARK SMILES O=C(O)CCc1ccccc1
REMARK SMILES IDX 4 1 2 2 1 3 3 4 5 6 6 7 7 8 11 9 8 10 10 11 9 12
REMARK H PARENT 3 5
REMARK Flexibility Score: inf
ROOT
ATOM      1  C   UNL     1       4.998   1.789   0.716  1.00  0.00     0.127 C 
ENDROOT
BRANCH   1   2
ATOM      2  C   UNL     1       4.481   1.121   1.923  1.00  0.00     0.303 C 
ATOM      3  O   UNL     1       5.178   0.227   2.475  1.00  0.00    -0.252 OA
BRANCH   2   4
ATOM      4  O   UNL     1       3.236   1.446   2.482  1.00  0.00    -0.481 OA
ATOM      5  H   UNL     1       2.406   1.016   2.097  1.00  0.00     0.296 HD
ENDBRANCH   2   4
ENDBRANCH   1   2
BRANCH   1   6
ATOM      6  C   UNL     1       6.511   1.918   0.735  1.00  0.00     0.047 C 
BRANCH   6   7
ATOM      7  C   UNL     1       7.129   1.101  -0.341  1.00  0.00    -0.047 A 
ATOM      8  C   UNL     1       8.478   1.227  -0.640  1.00  0.00     0.004 A 
ATOM      9  C   UNL     1       6.410   0.194  -1.098  1.00  0.00     0.004 A 
ATOM     10  C   UNL     1       9.078   0.493  -1.637  1.00  0.00     0.000 A 
ATOM     11  C   UNL     1       7.012  -0.541  -2.097  1.00  0.00     0.000 A 
ATOM     12  C   UNL     1       8.351  -0.409  -2.388  1.00  0.00     0.000 A 
ENDBRANCH   6   7
ENDBRANCH   1   6
TORSDOF 4
ENDMDL
MODEL 4
REMARK VINA RESULT:      -6.6      1.955      2.359
REMARK SMILES O=C(O)CCc1ccccc1
REMARK SMILES IDX 4 1 2 2 1 3 3 4 5 6 6 7 7 8 11 9 8 10 10 11 9 12
REMARK H PARENT 3 5
REMARK Flexibility Score: inf
ROOT
ATOM      1  C   UNL     1       8.279   0.158  -2.170  1.00  0.00     0.127 C 
ENDROOT
BRANCH   1   2
ATOM      2  C   UNL     1       9.396   0.348  -1.228  1.00  0.00     0.303 C 
ATOM      3  O   UNL     1       9.477  -0.399  -0.215  1.00  0.00    -0.252 OA
BRANCH   2   4
ATOM      4  O   UNL     1      10.376   1.333  -1.420  1.00  0.00    -0.481 OA
ATOM      5  H   UNL     1      10.116   2.189  -1.891  1.00  0.00     0.296 HD
ENDBRANCH   2   4
ENDBRANCH   1   2
BRANCH   1   6
ATOM      6  C   UNL     1       7.132  -0.620  -1.550  1.00  0.00     0.047 C 
BRANCH   6   7
ATOM      7  C   UNL     1       6.358   0.231  -0.610  1.00  0.00    -0.047 A 
ATOM      8  C   UNL     1       6.121  -0.186   0.692  1.00  0.00     0.004 A 
ATOM      9  C   UNL     1       5.831   1.458  -0.971  1.00  0.00     0.004 A 
ATOM     10  C   UNL     1       5.399   0.574   1.584  1.00  0.00     0.000 A 
ATOM     11  C   UNL     1       5.108   2.218  -0.077  1.00  0.00     0.000 A 
ATOM     12  C   UNL     1       4.877   1.796   1.212  1.00  0.00     0.000 A 
ENDBRANCH   6   7
ENDBRANCH   1   6
TORSDOF 4
ENDMDL
MODEL 5
REMARK VINA RESULT:      -6.6      1.884      2.883
REMARK SMILES O=C(O)CCc1ccccc1
REMARK SMILES IDX 4 1 2 2 1 3 3 4 5 6 6 7 7 8 11 9 8 10 10 11 9 12
REMARK H PARENT 3 5
REMARK Flexibility Score: inf
ROOT
ATOM      1  C   UNL     1       8.227  -1.596   1.019  1.00  0.00     0.127 C 
ENDROOT
BRANCH   1   2
ATOM      2  C   UNL     1       8.514  -2.833   0.271  1.00  0.00     0.303 C 
ATOM      3  O   UNL     1       9.147  -3.762   0.843  1.00  0.00    -0.252 OA
BRANCH   2   4
ATOM      4  O   UNL     1       8.106  -3.015  -1.059  1.00  0.00    -0.481 OA
ATOM      5  H   UNL     1       8.165  -3.941  -1.460  1.00  0.00     0.296 HD
ENDBRANCH   2   4
ENDBRANCH   1   2
BRANCH   1   6
ATOM      6  C   UNL     1       6.753  -1.457   1.353  1.00  0.00     0.047 C 
BRANCH   6   7
ATOM      7  C   UNL     1       6.198  -0.195   0.799  1.00  0.00    -0.047 A 
ATOM      8  C   UNL     1       5.413   0.638   1.584  1.00  0.00     0.004 A 
ATOM      9  C   UNL     1       6.416   0.210  -0.505  1.00  0.00     0.004 A 
ATOM     10  C   UNL     1       4.876   1.808   1.098  1.00  0.00     0.000 A 
ATOM     11  C   UNL     1       5.878   1.382  -0.991  1.00  0.00     0.000 A 
ATOM     12  C   UNL     1       5.100   2.203  -0.206  1.00  0.00     0.000 A 
ENDBRANCH   6   7
ENDBRANCH   1   6
TORSDOF 4
ENDMDL
