@<TRIPOS>MOLECULE
/home/cewinharhar/GITHUB/reincatalyze/data/processed/docking_pred/2023-Apr-25-2248_maxeplen10_maxtrainstep1000_exh16_gamma099_lrac3e-4_lrcr1e-3/5f00cdda1ab61f28c1ea6d7129614616e9231d70_ligand_2.pdbqt
 12 12 0 0 0
SMALL
GASTEIGER

@<TRIPOS>ATOM
      1  C          7.2960   -1.2440   -2.2380 C.3     1  UNL1        0.1270
      2  C          8.7350   -1.3880   -2.5190 C.2     1  UNL1        0.3030
      3  O          9.5360   -0.5210   -2.0740 O.2     1  UNL1       -0.2520
      4  O          9.2480   -2.4590   -3.2640 O.3     1  UNL1       -0.4810
      5  H         10.0070   -3.0010   -2.8720 H       1  UNL1        0.2960
      6  C          6.8970    0.2040   -2.0130 C.3     1  UNL1        0.0470
      7  C          6.2920    0.3860   -0.6680 C.2     1  UNL1       -0.0470
      8  C          6.4110   -0.6000    0.3020 C.2     1  UNL1        0.0040
      9  C          5.5820    1.5190   -0.3140 C.2     1  UNL1        0.0040
     10  C          5.8530   -0.4650    1.5520 C.2     1  UNL1        0.0000
     11  C          5.0240    1.6520    0.9390 C.2     1  UNL1        0.0000
     12  C          5.1450    0.6690    1.8950 C.2     1  UNL1        0.0000
@<TRIPOS>BOND
     1     4     5    1
     2     4     2    1
     3     2     1    1
     4     2     3    2
     5     1     6    1
     6     6     7    1
     7     7     9    2
     8     7     8    1
     9     9    11    1
    10     8    10    2
    11    11    12    2
    12    10    12    1
