@<TRIPOS>MOLECULE
/home/cewinharhar/GITHUB/reincatalyze/data/processed/docking_pred/2023-Apr-25-2248_maxeplen10_maxtrainstep1000_exh16_gamma099_lrac3e-4_lrcr1e-3/5f00cdda1ab61f28c1ea6d7129614616e9231d70_ligand_2.pdbqt
 12 12 0 0 0
SMALL
GASTEIGER

@<TRIPOS>ATOM
      1  C          8.2790    0.1580   -2.1700 C.3     1  UNL1        0.1270
      2  C          9.3960    0.3480   -1.2280 C.2     1  UNL1        0.3030
      3  O          9.4770   -0.3990   -0.2150 O.2     1  UNL1       -0.2520
      4  O         10.3760    1.3330   -1.4200 O.3     1  UNL1       -0.4810
      5  H         10.1160    2.1890   -1.8910 H       1  UNL1        0.2960
      6  C          7.1320   -0.6200   -1.5500 C.3     1  UNL1        0.0470
      7  C          6.3580    0.2310   -0.6100 C.2     1  UNL1       -0.0470
      8  C          6.1210   -0.1860    0.6920 C.2     1  UNL1        0.0040
      9  C          5.8310    1.4580   -0.9710 C.2     1  UNL1        0.0040
     10  C          5.3990    0.5740    1.5840 C.2     1  UNL1        0.0000
     11  C          5.1080    2.2180   -0.0770 C.2     1  UNL1        0.0000
     12  C          4.8770    1.7960    1.2120 C.2     1  UNL1        0.0000
@<TRIPOS>BOND
     1     1     6    1
     2     1     2    1
     3     5     4    1
     4     6     7    1
     5     4     2    1
     6     2     3    2
     7     9     7    2
     8     9    11    1
     9     7     8    1
    10    11    12    2
    11     8    10    2
    12    12    10    1
