@<TRIPOS>MOLECULE
/home/cewinharhar/GITHUB/reincatalyze/data/processed/docking_pred/2023-Apr-25-2248_maxeplen10_maxtrainstep1000_exh16_gamma099_lrac3e-4_lrcr1e-3/5f00cdda1ab61f28c1ea6d7129614616e9231d70_ligand_2.pdbqt
 12 12 0 0 0
SMALL
GASTEIGER

@<TRIPOS>ATOM
      1  C          8.2270   -1.5960    1.0190 C.3     1  UNL1        0.1270
      2  C          8.5140   -2.8330    0.2710 C.2     1  UNL1        0.3030
      3  O          9.1470   -3.7620    0.8430 O.2     1  UNL1       -0.2520
      4  O          8.1060   -3.0150   -1.0590 O.3     1  UNL1       -0.4810
      5  H          8.1650   -3.9410   -1.4600 H       1  UNL1        0.2960
      6  C          6.7530   -1.4570    1.3530 C.3     1  UNL1        0.0470
      7  C          6.1980   -0.1950    0.7990 C.2     1  UNL1       -0.0470
      8  C          5.4130    0.6380    1.5840 C.2     1  UNL1        0.0040
      9  C          6.4160    0.2100   -0.5050 C.2     1  UNL1        0.0040
     10  C          4.8760    1.8080    1.0980 C.2     1  UNL1        0.0000
     11  C          5.8780    1.3820   -0.9910 C.2     1  UNL1        0.0000
     12  C          5.1000    2.2030   -0.2060 C.2     1  UNL1        0.0000
@<TRIPOS>BOND
     1     5     4    1
     2     4     2    1
     3    11     9    1
     4    11    12    2
     5     9     7    2
     6    12    10    1
     7     2     3    2
     8     2     1    1
     9     7     6    1
    10     7     8    1
    11     1     6    1
    12    10     8    2
