@<TRIPOS>MOLECULE
/home/cewinharhar/GITHUB/reincatalyze/data/processed/docking_pred/2023-Apr-25-2248_maxeplen10_maxtrainstep1000_exh16_gamma099_lrac3e-4_lrcr1e-3/5f00cdda1ab61f28c1ea6d7129614616e9231d70_ligand_2.pdbqt
 12 12 0 0 0
SMALL
GASTEIGER

@<TRIPOS>ATOM
      1  C          4.9980    1.7890    0.7160 C.3     1  UNL1        0.1270
      2  C          4.4810    1.1210    1.9230 C.2     1  UNL1        0.3030
      3  O          5.1780    0.2270    2.4750 O.2     1  UNL1       -0.2520
      4  O          3.2360    1.4460    2.4820 O.3     1  UNL1       -0.4810
      5  H          2.4060    1.0160    2.0970 H       1  UNL1        0.2960
      6  C          6.5110    1.9180    0.7350 C.3     1  UNL1        0.0470
      7  C          7.1290    1.1010   -0.3410 C.2     1  UNL1       -0.0470
      8  C          8.4780    1.2270   -0.6400 C.2     1  UNL1        0.0040
      9  C          6.4100    0.1940   -1.0980 C.2     1  UNL1        0.0040
     10  C          9.0780    0.4930   -1.6370 C.2     1  UNL1        0.0000
     11  C          7.0120   -0.5410   -2.0970 C.2     1  UNL1        0.0000
     12  C          8.3510   -0.4090   -2.3880 C.2     1  UNL1        0.0000
@<TRIPOS>BOND
     1    12    11    2
     2    12    10    1
     3    11     9    1
     4    10     8    2
     5     9     7    2
     6     8     7    1
     7     7     6    1
     8     1     6    1
     9     1     2    1
    10     2     3    2
    11     2     4    1
    12     5     4    1
