@<TRIPOS>MOLECULE
/home/cewinharhar/GITHUB/reincatalyze/data/processed/docking_pred/2023-Apr-25-2248_maxeplen10_maxtrainstep1000_exh16_gamma099_lrac3e-4_lrcr1e-3/5f00cdda1ab61f28c1ea6d7129614616e9231d70_ligand_2.pdbqt
 12 12 0 0 0
SMALL
GASTEIGER

@<TRIPOS>ATOM
      1  C          8.3990   -0.6660   -2.1040 C.3     1  UNL1        0.1270
      2  C          8.4260   -1.9120   -2.8900 C.2     1  UNL1        0.3030
      3  O          9.5290   -2.4930   -3.0790 O.2     1  UNL1       -0.2520
      4  O          7.2650   -2.4780   -3.4350 O.3     1  UNL1       -0.4810
      5  H          7.3570   -3.1090   -4.2200 H       1  UNL1        0.2960
      6  C          7.0260   -0.0170   -2.1060 C.3     1  UNL1        0.0470
      7  C          6.4800    0.0770   -0.7270 C.2     1  UNL1       -0.0470
      8  C          6.5970   -0.9880    0.1550 C.2     1  UNL1        0.0040
      9  C          5.8280    1.2020   -0.2550 C.2     1  UNL1        0.0040
     10  C          6.0930   -0.9360    1.4340 C.2     1  UNL1        0.0000
     11  C          5.3230    1.2520    1.0270 C.2     1  UNL1        0.0000
     12  C          5.4430    0.1910    1.8950 C.2     1  UNL1        0.0000
@<TRIPOS>BOND
     1     5     4    1
     2     4     2    1
     3     3     2    2
     4     2     1    1
     5     6     1    1
     6     6     7    1
     7     7     9    2
     8     7     8    1
     9     9    11    1
    10     8    10    2
    11    11    12    2
    12    10    12    1
