@<TRIPOS>MOLECULE
/home/cewinharhar/GITHUB/reincatalyze/data/processed/docking_pred/2023-Apr-25-2248_maxeplen10_maxtrainstep1000_exh16_gamma099_lrac3e-4_lrcr1e-3/5f7ce1df4e505eeb6c5bd28a98530cf3f623dbf2_ligand_2.pdbqt
 12 12 0 0 0
SMALL
GASTEIGER

@<TRIPOS>ATOM
      1  C          8.4040   -0.6800   -2.0940 C.3     1  UNL1        0.1270
      2  C          8.4010   -1.9240   -2.8840 C.2     1  UNL1        0.3030
      3  O          7.2980   -2.4200   -3.2410 O.2     1  UNL1       -0.2520
      4  O          9.5850   -2.5770   -3.2550 O.3     1  UNL1       -0.4810
      5  H         10.3000   -2.0470   -3.7350 H       1  UNL1        0.2960
      6  C          7.0540    0.0150   -2.1130 C.3     1  UNL1        0.0470
      7  C          6.4790    0.0990   -0.7450 C.2     1  UNL1       -0.0470
      8  C          5.8080    1.2400   -0.3280 C.2     1  UNL1        0.0040
      9  C          6.5860   -0.9270    0.1760 C.2     1  UNL1        0.0040
     10  C          5.2740    1.3520    0.9350 C.2     1  UNL1        0.0000
     11  C          6.0500   -0.8130    1.4410 C.2     1  UNL1        0.0000
     12  C          5.3870    0.3230    1.8480 C.2     1  UNL1        0.0000
@<TRIPOS>BOND
     1     5     4    1
     2     4     2    1
     3     3     2    2
     4     2     1    1
     5     6     1    1
     6     6     7    1
     7     7     8    2
     8     7     9    1
     9     8    10    1
    10     9    11    2
    11    10    12    2
    12    11    12    1
