@<TRIPOS>MOLECULE
/home/cewinharhar/GITHUB/reincatalyze/data/processed/docking_pred/2023-Apr-25-2248_maxeplen10_maxtrainstep1000_exh16_gamma099_lrac3e-4_lrcr1e-3/5f7ce1df4e505eeb6c5bd28a98530cf3f623dbf2_ligand_2.pdbqt
 12 12 0 0 0
SMALL
GASTEIGER

@<TRIPOS>ATOM
      1  C          8.3970   -0.6800   -2.1010 C.3     1  UNL1        0.1270
      2  C          8.4240   -1.9210   -2.8940 C.2     1  UNL1        0.3030
      3  O          9.5260   -2.5040   -3.0820 O.2     1  UNL1       -0.2520
      4  O          7.2620   -2.4800   -3.4470 O.3     1  UNL1       -0.4810
      5  H          6.8600   -2.0460   -4.2670 H       1  UNL1        0.2960
      6  C          7.0280   -0.0250   -2.1060 C.3     1  UNL1        0.0470
      7  C          6.4800    0.0740   -0.7280 C.2     1  UNL1       -0.0470
      8  C          6.5970   -0.9870    0.1580 C.2     1  UNL1        0.0040
      9  C          5.8260    1.2000   -0.2610 C.2     1  UNL1        0.0040
     10  C          6.0920   -0.9300    1.4370 C.2     1  UNL1        0.0000
     11  C          5.3200    1.2550    1.0190 C.2     1  UNL1        0.0000
     12  C          5.4400    0.1980    1.8920 C.2     1  UNL1        0.0000
@<TRIPOS>BOND
     1     5     4    1
     2     4     2    1
     3     3     2    2
     4     2     1    1
     5     6     1    1
     6     6     7    1
     7     7     9    2
     8     7     8    1
     9     9    11    1
    10     8    10    2
    11    11    12    2
    12    10    12    1
