@<TRIPOS>MOLECULE
/home/cewinharhar/GITHUB/reincatalyze/data/processed/docking_pred/2023-Apr-25-2248_maxeplen10_maxtrainstep1000_exh16_gamma099_lrac3e-4_lrcr1e-3/5f7ce1df4e505eeb6c5bd28a98530cf3f623dbf2_ligand_2.pdbqt
 12 12 0 0 0
SMALL
GASTEIGER

@<TRIPOS>ATOM
      1  C          5.3910    2.9580    0.0830 C.3     1  UNL1        0.1270
      2  C          6.2540    3.8790    0.8430 C.2     1  UNL1        0.3030
      3  O          6.8900    4.7750    0.2230 O.2     1  UNL1       -0.2520
      4  O          6.3930    3.7960    2.2360 O.3     1  UNL1       -0.4810
      5  H          7.3230    3.7200    2.6260 H       1  UNL1        0.2960
      6  C          5.1390    1.6600    0.8300 C.3     1  UNL1        0.0470
      7  C          5.9660    0.5580    0.2750 C.2     1  UNL1       -0.0470
      8  C          6.3240    0.5470   -1.0660 C.2     1  UNL1        0.0040
      9  C          6.4090   -0.5050    1.0410 C.2     1  UNL1        0.0040
     10  C          7.0800   -0.4640   -1.6120 C.2     1  UNL1        0.0000
     11  C          7.1660   -1.5170    0.4920 C.2     1  UNL1        0.0000
     12  C          7.5160   -1.5210   -0.8390 C.2     1  UNL1        0.0000
@<TRIPOS>BOND
     1    10     8    1
     2    10    12    2
     3     8     7    2
     4    12    11    1
     5     1     6    1
     6     1     2    1
     7     3     2    2
     8     7     6    1
     9     7     9    1
    10    11     9    2
    11     2     4    1
    12     4     5    1
