@<TRIPOS>MOLECULE
/home/cewinharhar/GITHUB/reincatalyze/data/processed/docking_pred/2023-Apr-25-2248_maxeplen10_maxtrainstep1000_exh16_gamma099_lrac3e-4_lrcr1e-3/5f7ce1df4e505eeb6c5bd28a98530cf3f623dbf2_ligand_2.pdbqt
 12 12 0 0 0
SMALL
GASTEIGER

@<TRIPOS>ATOM
      1  C          8.2860    0.1540   -2.1970 C.3     1  UNL1        0.1270
      2  C          9.3990    0.3470   -1.2510 C.2     1  UNL1        0.3030
      3  O          9.4520   -0.3670   -0.2130 O.2     1  UNL1       -0.2520
      4  O         10.4070    1.2990   -1.4660 O.3     1  UNL1       -0.4810
      5  H         10.5890    1.9810   -0.7430 H       1  UNL1        0.2960
      6  C          7.1510   -0.6520   -1.5910 C.3     1  UNL1        0.0470
      7  C          6.3780    0.1640   -0.6190 C.2     1  UNL1       -0.0470
      8  C          5.8540    1.3940   -0.9870 C.2     1  UNL1        0.0040
      9  C          6.1500   -0.2420    0.6830 C.2     1  UNL1        0.0040
     10  C          5.1430    2.1780   -0.1070 C.2     1  UNL1        0.0000
     11  C          5.4370    0.5440    1.5630 C.2     1  UNL1        0.0000
     12  C          4.9220    1.7650    1.1910 C.2     1  UNL1        0.0000
@<TRIPOS>BOND
     1     1     6    1
     2     1     2    1
     3     6     7    1
     4     4     2    1
     5     4     5    1
     6     2     3    2
     7     8     7    2
     8     8    10    1
     9     7     9    1
    10    10    12    2
    11     9    11    2
    12    12    11    1
