@<TRIPOS>MOLECULE
/home/cewinharhar/GITHUB/reincatalyze/data/processed/docking_pred/2023-Apr-25-2248_maxeplen10_maxtrainstep1000_exh16_gamma099_lrac3e-4_lrcr1e-3/5f7ce1df4e505eeb6c5bd28a98530cf3f623dbf2_ligand_2.pdbqt
 12 12 0 0 0
SMALL
GASTEIGER

@<TRIPOS>ATOM
      1  C          5.0430    1.7610    0.7100 C.3     1  UNL1        0.1270
      2  C          4.5820    1.0560    1.9190 C.2     1  UNL1        0.3030
      3  O          3.4510    1.3390    2.4000 O.2     1  UNL1       -0.2520
      4  O          5.3590    0.0770    2.5550 O.3     1  UNL1       -0.4810
      5  H          6.2270    0.3560    2.9920 H       1  UNL1        0.2960
      6  C          6.5500    1.9440    0.6920 C.3     1  UNL1        0.0470
      7  C          7.1750    1.1130   -0.3700 C.2     1  UNL1       -0.0470
      8  C          6.4210    0.1910   -1.0820 C.2     1  UNL1        0.0040
      9  C          8.5160    1.1990   -0.6960 C.2     1  UNL1        0.0040
     10  C          6.9720   -0.6010   -2.0630 C.2     1  UNL1        0.0000
     11  C          9.0660    0.4050   -1.6790 C.2     1  UNL1        0.0000
     12  C          8.3120   -0.5080   -2.3800 C.2     1  UNL1        0.0000
@<TRIPOS>BOND
     1    12    10    2
     2    12    11    1
     3    10     8    1
     4    11     9    2
     5     8     7    2
     6     9     7    1
     7     7     6    1
     8     6     1    1
     9     1     2    1
    10     2     3    2
    11     2     4    1
    12     4     5    1
