MODEL 1
REMARK VINA RESULT:      -7.3      0.000      0.000
REMARK SMILES O=C(O)CCc1ccccc1
REMARK SMILES IDX 4 1 2 2 1 3 3 4 5 6 6 7 7 8 11 9 8 10 10 11 9 12
REMARK H PARENT 3 5
REMARK Flexibility Score: inf
ROOT
ATOM      1  C   UNL     1       8.397  -0.680  -2.101  1.00  0.00     0.127 C 
ENDROOT
BRANCH   1   2
ATOM      2  C   UNL     1       8.424  -1.921  -2.894  1.00  0.00     0.303 C 
ATOM      3  O   UNL     1       9.526  -2.504  -3.082  1.00  0.00    -0.252 OA
BRANCH   2   4
ATOM      4  O   UNL     1       7.262  -2.480  -3.447  1.00  0.00    -0.481 OA
ATOM      5  H   UNL     1       6.860  -2.046  -4.267  1.00  0.00     0.296 HD
ENDBRANCH   2   4
ENDBRANCH   1   2
BRANCH   1   6
ATOM      6  C   UNL     1       7.028  -0.025  -2.106  1.00  0.00     0.047 C 
BRANCH   6   7
ATOM      7  C   UNL     1       6.480   0.074  -0.728  1.00  0.00    -0.047 A 
ATOM      8  C   UNL     1       6.597  -0.987   0.158  1.00  0.00     0.004 A 
ATOM      9  C   UNL     1       5.826   1.200  -0.261  1.00  0.00     0.004 A 
ATOM     10  C   UNL     1       6.092  -0.930   1.437  1.00  0.00     0.000 A 
ATOM     11  C   UNL     1       5.320   1.255   1.019  1.00  0.00     0.000 A 
ATOM     12  C   UNL     1       5.440   0.198   1.892  1.00  0.00     0.000 A 
ENDBRANCH   6   7
ENDBRANCH   1   6
TORSDOF 4
ENDMDL
MODEL 2
REMARK VINA RESULT:      -7.3      0.118      1.724
REMARK SMILES O=C(O)CCc1ccccc1
REMARK SMILES IDX 4 1 2 2 1 3 3 4 5 6 6 7 7 8 11 9 8 10 10 11 9 12
REMARK H PARENT 3 5
REMARK Flexibility Score: inf
ROOT
ATOM      1  C   UNL     1       8.404  -0.680  -2.094  1.00  0.00     0.127 C 
ENDROOT
BRANCH   1   2
ATOM      2  C   UNL     1       8.401  -1.924  -2.884  1.00  0.00     0.303 C 
ATOM      3  O   UNL     1       7.298  -2.420  -3.241  1.00  0.00    -0.252 OA
BRANCH   2   4
ATOM      4  O   UNL     1       9.585  -2.577  -3.255  1.00  0.00    -0.481 OA
ATOM      5  H   UNL     1      10.300  -2.047  -3.735  1.00  0.00     0.296 HD
ENDBRANCH   2   4
ENDBRANCH   1   2
BRANCH   1   6
ATOM      6  C   UNL     1       7.054   0.015  -2.113  1.00  0.00     0.047 C 
BRANCH   6   7
ATOM      7  C   UNL     1       6.479   0.099  -0.745  1.00  0.00    -0.047 A 
ATOM      8  C   UNL     1       5.808   1.240  -0.328  1.00  0.00     0.004 A 
ATOM      9  C   UNL     1       6.586  -0.927   0.176  1.00  0.00     0.004 A 
ATOM     10  C   UNL     1       5.274   1.352   0.935  1.00  0.00     0.000 A 
ATOM     11  C   UNL     1       6.050  -0.813   1.441  1.00  0.00     0.000 A 
ATOM     12  C   UNL     1       5.387   0.323   1.848  1.00  0.00     0.000 A 
ENDBRANCH   6   7
ENDBRANCH   1   6
TORSDOF 4
ENDMDL
MODEL 3
REMARK VINA RESULT:      -6.6      1.956      2.675
REMARK SMILES O=C(O)CCc1ccccc1
REMARK SMILES IDX 4 1 2 2 1 3 3 4 5 6 6 7 7 8 11 9 8 10 10 11 9 12
REMARK H PARENT 3 5
REMARK Flexibility Score: inf
ROOT
ATOM      1  C   UNL     1       8.286   0.154  -2.197  1.00  0.00     0.127 C 
ENDROOT
BRANCH   1   2
ATOM      2  C   UNL     1       9.399   0.347  -1.251  1.00  0.00     0.303 C 
ATOM      3  O   UNL     1       9.452  -0.367  -0.213  1.00  0.00    -0.252 OA
BRANCH   2   4
ATOM      4  O   UNL     1      10.407   1.299  -1.466  1.00  0.00    -0.481 OA
ATOM      5  H   UNL     1      10.589   1.981  -0.743  1.00  0.00     0.296 HD
ENDBRANCH   2   4
ENDBRANCH   1   2
BRANCH   1   6
ATOM      6  C   UNL     1       7.151  -0.652  -1.591  1.00  0.00     0.047 C 
BRANCH   6   7
ATOM      7  C   UNL     1       6.378   0.164  -0.619  1.00  0.00    -0.047 A 
ATOM      8  C   UNL     1       5.854   1.394  -0.987  1.00  0.00     0.004 A 
ATOM      9  C   UNL     1       6.150  -0.242   0.683  1.00  0.00     0.004 A 
ATOM     10  C   UNL     1       5.143   2.178  -0.107  1.00  0.00     0.000 A 
ATOM     11  C   UNL     1       5.437   0.544   1.563  1.00  0.00     0.000 A 
ATOM     12  C   UNL     1       4.922   1.765   1.191  1.00  0.00     0.000 A 
ENDBRANCH   6   7
ENDBRANCH   1   6
TORSDOF 4
ENDMDL
MODEL 4
REMARK VINA RESULT:      -6.6      3.341      5.099
REMARK SMILES O=C(O)CCc1ccccc1
REMARK SMILES IDX 4 1 2 2 1 3 3 4 5 6 6 7 7 8 11 9 8 10 10 11 9 12
REMARK H PARENT 3 5
REMARK Flexibility Score: inf
ROOT
ATOM      1  C   UNL     1       5.043   1.761   0.710  1.00  0.00     0.127 C 
ENDROOT
BRANCH   1   2
ATOM      2  C   UNL     1       4.582   1.056   1.919  1.00  0.00     0.303 C 
ATOM      3  O   UNL     1       3.451   1.339   2.400  1.00  0.00    -0.252 OA
BRANCH   2   4
ATOM      4  O   UNL     1       5.359   0.077   2.555  1.00  0.00    -0.481 OA
ATOM      5  H   UNL     1       6.227   0.356   2.992  1.00  0.00     0.296 HD
ENDBRANCH   2   4
ENDBRANCH   1   2
BRANCH   1   6
ATOM      6  C   UNL     1       6.550   1.944   0.692  1.00  0.00     0.047 C 
BRANCH   6   7
ATOM      7  C   UNL     1       7.175   1.113  -0.370  1.00  0.00    -0.047 A 
ATOM      8  C   UNL     1       6.421   0.191  -1.082  1.00  0.00     0.004 A 
ATOM      9  C   UNL     1       8.516   1.199  -0.696  1.00  0.00     0.004 A 
ATOM     10  C   UNL     1       6.972  -0.601  -2.063  1.00  0.00     0.000 A 
ATOM     11  C   UNL     1       9.066   0.405  -1.679  1.00  0.00     0.000 A 
ATOM     12  C   UNL     1       8.312  -0.508  -2.380  1.00  0.00     0.000 A 
ENDBRANCH   6   7
ENDBRANCH   1   6
TORSDOF 4
ENDMDL
MODEL 5
REMARK VINA RESULT:      -6.6      3.753      5.087
REMARK SMILES O=C(O)CCc1ccccc1
REMARK SMILES IDX 4 1 2 2 1 3 3 4 5 6 6 7 7 8 11 9 8 10 10 11 9 12
REMARK H PARENT 3 5
REMARK Flexibility Score: inf
ROOT
ATOM      1  C   UNL     1       5.391   2.958   0.083  1.00  0.00     0.127 C 
ENDROOT
BRANCH   1   2
ATOM      2  C   UNL     1       6.254   3.879   0.843  1.00  0.00     0.303 C 
ATOM      3  O   UNL     1       6.890   4.775   0.223  1.00  0.00    -0.252 OA
BRANCH   2   4
ATOM      4  O   UNL     1       6.393   3.796   2.236  1.00  0.00    -0.481 OA
ATOM      5  H   UNL     1       7.323   3.720   2.626  1.00  0.00     0.296 HD
ENDBRANCH   2   4
ENDBRANCH   1   2
BRANCH   1   6
ATOM      6  C   UNL     1       5.139   1.660   0.830  1.00  0.00     0.047 C 
BRANCH   6   7
ATOM      7  C   UNL     1       5.966   0.558   0.275  1.00  0.00    -0.047 A 
ATOM      8  C   UNL     1       6.324   0.547  -1.066  1.00  0.00     0.004 A 
ATOM      9  C   UNL     1       6.409  -0.505   1.041  1.00  0.00     0.004 A 
ATOM     10  C   UNL     1       7.080  -0.464  -1.612  1.00  0.00     0.000 A 
ATOM     11  C   UNL     1       7.166  -1.517   0.492  1.00  0.00     0.000 A 
ATOM     12  C   UNL     1       7.516  -1.521  -0.839  1.00  0.00     0.000 A 
ENDBRANCH   6   7
ENDBRANCH   1   6
TORSDOF 4
ENDMDL
