@<TRIPOS>MOLECULE
/home/cewinharhar/GITHUB/reincatalyze/data/processed/docking_pred/2023-Apr-25-2248_maxeplen10_maxtrainstep1000_exh16_gamma099_lrac3e-4_lrcr1e-3/6047b5c71b47d2a809e14c46b0582b8ae3076bc9_ligand_2.pdbqt
 12 12 0 0 0
SMALL
GASTEIGER

@<TRIPOS>ATOM
      1  C          7.3370   -1.5880   -2.4590 C.3     1  UNL1        0.1270
      2  C          8.7970   -1.5480   -2.6540 C.2     1  UNL1        0.3030
      3  O          9.4410   -0.5400   -2.2550 O.2     1  UNL1       -0.2520
      4  O          9.4980   -2.5950   -3.2700 O.3     1  UNL1       -0.4810
      5  H         10.5090   -2.5690   -3.2650 H       1  UNL1        0.2960
      6  C          6.8180   -0.3470   -1.7540 C.3     1  UNL1        0.0470
      7  C          6.6250   -0.6000   -0.3020 C.2     1  UNL1       -0.0470
      8  C          5.8080    0.2240    0.4580 C.2     1  UNL1        0.0040
      9  C          7.2430   -1.6430    0.3640 C.2     1  UNL1        0.0040
     10  C          5.6170    0.0220    1.8050 C.2     1  UNL1        0.0000
     11  C          7.0500   -1.8440    1.7140 C.2     1  UNL1        0.0000
     12  C          6.2390   -1.0210    2.4610 C.2     1  UNL1        0.0000
@<TRIPOS>BOND
     1     4     5    1
     2     4     2    1
     3     2     1    1
     4     2     3    2
     5     1     6    1
     6     6     7    1
     7     7     9    2
     8     7     8    1
     9     9    11    1
    10     8    10    2
    11    11    12    2
    12    10    12    1
