@<TRIPOS>MOLECULE
/home/cewinharhar/GITHUB/reincatalyze/data/processed/docking_pred/2023-Apr-25-2248_maxeplen10_maxtrainstep1000_exh16_gamma099_lrac3e-4_lrcr1e-3/6047b5c71b47d2a809e14c46b0582b8ae3076bc9_ligand_2.pdbqt
 12 12 0 0 0
SMALL
GASTEIGER

@<TRIPOS>ATOM
      1  C          8.2920   -0.7180   -2.1630 C.3     1  UNL1        0.1270
      2  C          8.4100   -1.9620   -2.9440 C.2     1  UNL1        0.3030
      3  O          9.5470   -2.4880   -3.0890 O.2     1  UNL1       -0.2520
      4  O          7.3000   -2.5840   -3.5310 O.3     1  UNL1       -0.4810
      5  H          6.3790   -2.2120   -3.3390 H       1  UNL1        0.2960
      6  C          6.8560   -0.4170   -1.7750 C.3     1  UNL1        0.0470
      7  C          6.6470   -0.6050   -0.3150 C.2     1  UNL1       -0.0470
      8  C          7.2730   -1.6430    0.3610 C.2     1  UNL1        0.0040
      9  C          5.8280    0.2170    0.4360 C.2     1  UNL1        0.0040
     10  C          7.0930   -1.8500    1.7090 C.2     1  UNL1        0.0000
     11  C          5.6490    0.0090    1.7860 C.2     1  UNL1        0.0000
     12  C          6.2720   -1.0230    2.4500 C.2     1  UNL1        0.0000
@<TRIPOS>BOND
     1     4     5    1
     2     4     2    1
     3     3     2    2
     4     2     1    1
     5     1     6    1
     6     6     7    1
     7     7     8    2
     8     7     9    1
     9     8    10    1
    10     9    11    2
    11    10    12    2
    12    11    12    1
