@<TRIPOS>MOLECULE
/home/cewinharhar/GITHUB/reincatalyze/data/processed/docking_pred/2023-Apr-25-2248_maxeplen10_maxtrainstep1000_exh16_gamma099_lrac3e-4_lrcr1e-3/6047b5c71b47d2a809e14c46b0582b8ae3076bc9_ligand_2.pdbqt
 12 12 0 0 0
SMALL
GASTEIGER

@<TRIPOS>ATOM
      1  C          5.8200   -0.8910    1.6950 C.3     1  UNL1        0.1270
      2  C          5.3290    0.4590    2.0270 C.2     1  UNL1        0.3030
      3  O          4.1680    0.5890    2.5000 O.2     1  UNL1       -0.2520
      4  O          6.1120    1.6070    1.8350 O.3     1  UNL1       -0.4810
      5  H          6.5470    1.7510    0.9340 H       1  UNL1        0.2960
      6  C          7.3250   -0.9200    1.4930 C.3     1  UNL1        0.0470
      7  C          7.6730   -0.7340    0.0600 C.2     1  UNL1       -0.0470
      8  C          6.8740   -1.2720   -0.9390 C.2     1  UNL1        0.0040
      9  C          8.7940   -0.0360   -0.3530 C.2     1  UNL1        0.0040
     10  C          7.1760   -1.1260   -2.2730 C.2     1  UNL1        0.0000
     11  C          9.0940    0.1090   -1.6900 C.2     1  UNL1        0.0000
     12  C          8.2970   -0.4290   -2.6750 C.2     1  UNL1        0.0000
@<TRIPOS>BOND
     1    12    10    2
     2    12    11    1
     3    10     8    1
     4    11     9    2
     5     8     7    2
     6     9     7    1
     7     7     6    1
     8     5     4    1
     9     6     1    1
    10     1     2    1
    11     4     2    1
    12     2     3    2
