@<TRIPOS>MOLECULE
/home/cewinharhar/GITHUB/reincatalyze/data/processed/docking_pred/2023-Apr-25-2248_maxeplen10_maxtrainstep1000_exh16_gamma099_lrac3e-4_lrcr1e-3/6047b5c71b47d2a809e14c46b0582b8ae3076bc9_ligand_2.pdbqt
 12 12 0 0 0
SMALL
GASTEIGER

@<TRIPOS>ATOM
      1  C          5.1130   -0.0710    2.0260 C.3     1  UNL1        0.1270
      2  C          4.3980    1.2160    1.9630 C.2     1  UNL1        0.3030
      3  O          4.9170    2.1740    1.3290 O.2     1  UNL1       -0.2520
      4  O          3.1560    1.4130    2.5840 O.3     1  UNL1       -0.4810
      5  H          2.5490    0.6150    2.7160 H       1  UNL1        0.2960
      6  C          6.6070    0.0910    1.8170 C.3     1  UNL1        0.0470
      7  C          7.0670   -0.6830    0.6340 C.2     1  UNL1       -0.0470
      8  C          6.6290   -0.3540   -0.6410 C.2     1  UNL1        0.0040
      9  C          7.9290   -1.7600    0.7330 C.2     1  UNL1        0.0040
     10  C          7.0270   -1.0580   -1.7540 C.2     1  UNL1        0.0000
     11  C          8.3270   -2.4640   -0.3830 C.2     1  UNL1        0.0000
     12  C          7.8880   -2.1320   -1.6440 C.2     1  UNL1        0.0000
@<TRIPOS>BOND
     1    10    12    2
     2    10     8    1
     3    12    11    1
     4     8     7    2
     5    11     9    2
     6     7     9    1
     7     7     6    1
     8     3     2    2
     9     6     1    1
    10     2     1    1
    11     2     4    1
    12     4     5    1
