@<TRIPOS>MOLECULE
/home/cewinharhar/GITHUB/reincatalyze/data/processed/docking_pred/2023-Apr-25-2248_maxeplen10_maxtrainstep1000_exh16_gamma099_lrac3e-4_lrcr1e-3/6047b5c71b47d2a809e14c46b0582b8ae3076bc9_ligand_2.pdbqt
 12 12 0 0 0
SMALL
GASTEIGER

@<TRIPOS>ATOM
      1  C          8.3280   -0.7490   -2.1240 C.3     1  UNL1        0.1270
      2  C          8.4400   -1.9640   -2.9510 C.2     1  UNL1        0.3030
      3  O          9.5790   -2.4700   -3.1430 O.2     1  UNL1       -0.2520
      4  O          7.3220   -2.5790   -3.5320 O.3     1  UNL1       -0.4810
      5  H          7.1840   -3.5690   -3.3840 H       1  UNL1        0.2960
      6  C          6.8890   -0.4390   -1.7520 C.3     1  UNL1        0.0470
      7  C          6.6610   -0.6350   -0.2960 C.2     1  UNL1       -0.0470
      8  C          5.8330    0.2230    0.4120 C.2     1  UNL1        0.0040
      9  C          7.2560   -1.6550    0.4240 C.2     1  UNL1        0.0040
     10  C          5.6100    0.0750    1.7620 C.2     1  UNL1        0.0000
     11  C          7.0320   -1.8020    1.7760 C.2     1  UNL1        0.0000
     12  C          6.2100   -0.9460    2.4720 C.2     1  UNL1        0.0000
@<TRIPOS>BOND
     1     4     5    1
     2     4     2    1
     3     3     2    2
     4     2     1    1
     5     1     6    1
     6     6     7    1
     7     7     8    2
     8     7     9    1
     9     8    10    1
    10     9    11    2
    11    10    12    2
    12    11    12    1
