MODEL 1
REMARK VINA RESULT:      -6.4      0.000      0.000
REMARK SMILES O=C(O)CCc1ccccc1
REMARK SMILES IDX 4 1 2 2 1 3 3 4 5 6 6 7 7 8 11 9 8 10 10 11 9 12
REMARK H PARENT 3 5
REMARK Flexibility Score: inf
ROOT
ATOM      1  C   UNL     1       8.328  -0.749  -2.124  1.00  0.00     0.127 C 
ENDROOT
BRANCH   1   2
ATOM      2  C   UNL     1       8.440  -1.964  -2.951  1.00  0.00     0.303 C 
ATOM      3  O   UNL     1       9.579  -2.470  -3.143  1.00  0.00    -0.252 OA
BRANCH   2   4
ATOM      4  O   UNL     1       7.322  -2.579  -3.532  1.00  0.00    -0.481 OA
ATOM      5  H   UNL     1       7.184  -3.569  -3.384  1.00  0.00     0.296 HD
ENDBRANCH   2   4
ENDBRANCH   1   2
BRANCH   1   6
ATOM      6  C   UNL     1       6.889  -0.439  -1.752  1.00  0.00     0.047 C 
BRANCH   6   7
ATOM      7  C   UNL     1       6.661  -0.635  -0.296  1.00  0.00    -0.047 A 
ATOM      8  C   UNL     1       5.833   0.223   0.412  1.00  0.00     0.004 A 
ATOM      9  C   UNL     1       7.256  -1.655   0.424  1.00  0.00     0.004 A 
ATOM     10  C   UNL     1       5.610   0.075   1.762  1.00  0.00     0.000 A 
ATOM     11  C   UNL     1       7.032  -1.802   1.776  1.00  0.00     0.000 A 
ATOM     12  C   UNL     1       6.210  -0.946   2.472  1.00  0.00     0.000 A 
ENDBRANCH   6   7
ENDBRANCH   1   6
TORSDOF 4
ENDMDL
MODEL 2
REMARK VINA RESULT:      -6.4      0.064      1.422
REMARK SMILES O=C(O)CCc1ccccc1
REMARK SMILES IDX 4 1 2 2 1 3 3 4 5 6 6 7 7 8 11 9 8 10 10 11 9 12
REMARK H PARENT 3 5
REMARK Flexibility Score: inf
ROOT
ATOM      1  C   UNL     1       8.292  -0.718  -2.163  1.00  0.00     0.127 C 
ENDROOT
BRANCH   1   2
ATOM      2  C   UNL     1       8.410  -1.962  -2.944  1.00  0.00     0.303 C 
ATOM      3  O   UNL     1       9.547  -2.488  -3.089  1.00  0.00    -0.252 OA
BRANCH   2   4
ATOM      4  O   UNL     1       7.300  -2.584  -3.531  1.00  0.00    -0.481 OA
ATOM      5  H   UNL     1       6.379  -2.212  -3.339  1.00  0.00     0.296 HD
ENDBRANCH   2   4
ENDBRANCH   1   2
BRANCH   1   6
ATOM      6  C   UNL     1       6.856  -0.417  -1.775  1.00  0.00     0.047 C 
BRANCH   6   7
ATOM      7  C   UNL     1       6.647  -0.605  -0.315  1.00  0.00    -0.047 A 
ATOM      8  C   UNL     1       7.273  -1.643   0.361  1.00  0.00     0.004 A 
ATOM      9  C   UNL     1       5.828   0.217   0.436  1.00  0.00     0.004 A 
ATOM     10  C   UNL     1       7.093  -1.850   1.709  1.00  0.00     0.000 A 
ATOM     11  C   UNL     1       5.649   0.009   1.786  1.00  0.00     0.000 A 
ATOM     12  C   UNL     1       6.272  -1.023   2.450  1.00  0.00     0.000 A 
ENDBRANCH   6   7
ENDBRANCH   1   6
TORSDOF 4
ENDMDL
MODEL 3
REMARK VINA RESULT:      -6.3      3.230      4.987
REMARK SMILES O=C(O)CCc1ccccc1
REMARK SMILES IDX 4 1 2 2 1 3 3 4 5 6 6 7 7 8 11 9 8 10 10 11 9 12
REMARK H PARENT 3 5
REMARK Flexibility Score: inf
ROOT
ATOM      1  C   UNL     1       5.820  -0.891   1.695  1.00  0.00     0.127 C 
ENDROOT
BRANCH   1   2
ATOM      2  C   UNL     1       5.329   0.459   2.027  1.00  0.00     0.303 C 
ATOM      3  O   UNL     1       4.168   0.589   2.500  1.00  0.00    -0.252 OA
BRANCH   2   4
ATOM      4  O   UNL     1       6.112   1.607   1.835  1.00  0.00    -0.481 OA
ATOM      5  H   UNL     1       6.547   1.751   0.934  1.00  0.00     0.296 HD
ENDBRANCH   2   4
ENDBRANCH   1   2
BRANCH   1   6
ATOM      6  C   UNL     1       7.325  -0.920   1.493  1.00  0.00     0.047 C 
BRANCH   6   7
ATOM      7  C   UNL     1       7.673  -0.734   0.060  1.00  0.00    -0.047 A 
ATOM      8  C   UNL     1       6.874  -1.272  -0.939  1.00  0.00     0.004 A 
ATOM      9  C   UNL     1       8.794  -0.036  -0.353  1.00  0.00     0.004 A 
ATOM     10  C   UNL     1       7.176  -1.126  -2.273  1.00  0.00     0.000 A 
ATOM     11  C   UNL     1       9.094   0.109  -1.690  1.00  0.00     0.000 A 
ATOM     12  C   UNL     1       8.297  -0.429  -2.675  1.00  0.00     0.000 A 
ENDBRANCH   6   7
ENDBRANCH   1   6
TORSDOF 4
ENDMDL
MODEL 4
REMARK VINA RESULT:      -6.2      3.484      4.982
REMARK SMILES O=C(O)CCc1ccccc1
REMARK SMILES IDX 4 1 2 2 1 3 3 4 5 6 6 7 7 8 11 9 8 10 10 11 9 12
REMARK H PARENT 3 5
REMARK Flexibility Score: inf
ROOT
ATOM      1  C   UNL     1       5.113  -0.071   2.026  1.00  0.00     0.127 C 
ENDROOT
BRANCH   1   2
ATOM      2  C   UNL     1       4.398   1.216   1.963  1.00  0.00     0.303 C 
ATOM      3  O   UNL     1       4.917   2.174   1.329  1.00  0.00    -0.252 OA
BRANCH   2   4
ATOM      4  O   UNL     1       3.156   1.413   2.584  1.00  0.00    -0.481 OA
ATOM      5  H   UNL     1       2.549   0.615   2.716  1.00  0.00     0.296 HD
ENDBRANCH   2   4
ENDBRANCH   1   2
BRANCH   1   6
ATOM      6  C   UNL     1       6.607   0.091   1.817  1.00  0.00     0.047 C 
BRANCH   6   7
ATOM      7  C   UNL     1       7.067  -0.683   0.634  1.00  0.00    -0.047 A 
ATOM      8  C   UNL     1       6.629  -0.354  -0.641  1.00  0.00     0.004 A 
ATOM      9  C   UNL     1       7.929  -1.760   0.733  1.00  0.00     0.004 A 
ATOM     10  C   UNL     1       7.027  -1.058  -1.754  1.00  0.00     0.000 A 
ATOM     11  C   UNL     1       8.327  -2.464  -0.383  1.00  0.00     0.000 A 
ATOM     12  C   UNL     1       7.888  -2.132  -1.644  1.00  0.00     0.000 A 
ENDBRANCH   6   7
ENDBRANCH   1   6
TORSDOF 4
ENDMDL
MODEL 5
REMARK VINA RESULT:      -6.0      0.775      1.025
REMARK SMILES O=C(O)CCc1ccccc1
REMARK SMILES IDX 4 1 2 2 1 3 3 4 5 6 6 7 7 8 11 9 8 10 10 11 9 12
REMARK H PARENT 3 5
REMARK Flexibility Score: inf
ROOT
ATOM      1  C   UNL     1       7.337  -1.588  -2.459  1.00  0.00     0.127 C 
ENDROOT
BRANCH   1   2
ATOM      2  C   UNL     1       8.797  -1.548  -2.654  1.00  0.00     0.303 C 
ATOM      3  O   UNL     1       9.441  -0.540  -2.255  1.00  0.00    -0.252 OA
BRANCH   2   4
ATOM      4  O   UNL     1       9.498  -2.595  -3.270  1.00  0.00    -0.481 OA
ATOM      5  H   UNL     1      10.509  -2.569  -3.265  1.00  0.00     0.296 HD
ENDBRANCH   2   4
ENDBRANCH   1   2
BRANCH   1   6
ATOM      6  C   UNL     1       6.818  -0.347  -1.754  1.00  0.00     0.047 C 
BRANCH   6   7
ATOM      7  C   UNL     1       6.625  -0.600  -0.302  1.00  0.00    -0.047 A 
ATOM      8  C   UNL     1       5.808   0.224   0.458  1.00  0.00     0.004 A 
ATOM      9  C   UNL     1       7.243  -1.643   0.364  1.00  0.00     0.004 A 
ATOM     10  C   UNL     1       5.617   0.022   1.805  1.00  0.00     0.000 A 
ATOM     11  C   UNL     1       7.050  -1.844   1.714  1.00  0.00     0.000 A 
ATOM     12  C   UNL     1       6.239  -1.021   2.461  1.00  0.00     0.000 A 
ENDBRANCH   6   7
ENDBRANCH   1   6
TORSDOF 4
ENDMDL
