@<TRIPOS>MOLECULE
/home/cewinharhar/GITHUB/reincatalyze/data/processed/docking_pred/2023-Apr-25-2248_maxeplen10_maxtrainstep1000_exh16_gamma099_lrac3e-4_lrcr1e-3/6070aa1b8336213875ea865ca7f6d729a9af33a9_ligand_2.pdbqt
 12 12 0 0 0
SMALL
GASTEIGER

@<TRIPOS>ATOM
      1  C          4.9700    1.7930    0.7310 C.3     1  UNL1        0.1270
      2  C          4.4520    1.1070    1.9280 C.2     1  UNL1        0.3030
      3  O          5.1400    0.1900    2.4540 O.2     1  UNL1       -0.2520
      4  O          3.2180    1.4380    2.5050 O.3     1  UNL1       -0.4810
      5  H          3.0990    2.3640    2.8930 H       1  UNL1        0.2960
      6  C          6.4820    1.9270    0.7560 C.3     1  UNL1        0.0470
      7  C          7.1050    1.1190   -0.3250 C.2     1  UNL1       -0.0470
      8  C          8.4580    1.2390   -0.6080 C.2     1  UNL1        0.0040
      9  C          6.3880    0.2260   -1.1000 C.2     1  UNL1        0.0040
     10  C          9.0630    0.5130   -1.6080 C.2     1  UNL1        0.0000
     11  C          6.9950   -0.5010   -2.1020 C.2     1  UNL1        0.0000
     12  C          8.3380   -0.3740   -2.3780 C.2     1  UNL1        0.0000
@<TRIPOS>BOND
     1    12    11    2
     2    12    10    1
     3    11     9    1
     4    10     8    2
     5     9     7    2
     6     8     7    1
     7     7     6    1
     8     1     6    1
     9     1     2    1
    10     2     3    2
    11     2     4    1
    12     4     5    1
