@<TRIPOS>MOLECULE
/home/cewinharhar/GITHUB/reincatalyze/data/processed/docking_pred/2023-Apr-25-2248_maxeplen10_maxtrainstep1000_exh16_gamma099_lrac3e-4_lrcr1e-3/6070aa1b8336213875ea865ca7f6d729a9af33a9_ligand_2.pdbqt
 12 12 0 0 0
SMALL
GASTEIGER

@<TRIPOS>ATOM
      1  C          8.5240    0.6600   -1.6860 C.3     1  UNL1        0.1270
      2  C          9.6690    0.2830   -0.8380 C.2     1  UNL1        0.3030
      3  O          9.4850   -0.5160    0.1200 O.2     1  UNL1       -0.2520
      4  O         10.9600    0.7820   -1.0610 O.3     1  UNL1       -0.4810
      5  H         11.1010    1.7840   -1.0460 H       1  UNL1        0.2960
      6  C          7.3190   -0.2350   -1.4530 C.3     1  UNL1        0.0470
      7  C          6.4300    0.3310   -0.4050 C.2     1  UNL1       -0.0470
      8  C          6.2010   -0.3580    0.7770 C.2     1  UNL1        0.0040
      9  C          5.7840    1.5460   -0.5480 C.2     1  UNL1        0.0040
     10  C          5.3760    0.1340    1.7610 C.2     1  UNL1        0.0000
     11  C          4.9580    2.0370    0.4400 C.2     1  UNL1        0.0000
     12  C          4.7350    1.3470    1.6090 C.2     1  UNL1        0.0000
@<TRIPOS>BOND
     1     1     6    1
     2     1     2    1
     3     6     7    1
     4     4     5    1
     5     4     2    1
     6     2     3    2
     7     9     7    2
     8     9    11    1
     9     7     8    1
    10    11    12    2
    11     8    10    2
    12    12    10    1
