@<TRIPOS>MOLECULE
/home/cewinharhar/GITHUB/reincatalyze/data/processed/docking_pred/2023-Apr-25-2248_maxeplen10_maxtrainstep1000_exh16_gamma099_lrac3e-4_lrcr1e-3/6070aa1b8336213875ea865ca7f6d729a9af33a9_ligand_2.pdbqt
 12 12 0 0 0
SMALL
GASTEIGER

@<TRIPOS>ATOM
      1  C          7.9860   -2.2810    0.7280 C.3     1  UNL1        0.1270
      2  C          8.7920   -3.4350    0.2930 C.2     1  UNL1        0.3030
      3  O          9.6610   -3.9040    1.0770 O.2     1  UNL1       -0.2520
      4  O          8.6250   -4.0330   -0.9640 O.3     1  UNL1       -0.4810
      5  H          8.4710   -3.4370   -1.7660 H       1  UNL1        0.2960
      6  C          7.4600   -1.4730   -0.4450 C.3     1  UNL1        0.0470
      7  C          6.5880   -0.3630    0.0200 C.2     1  UNL1       -0.0470
      8  C          6.2930    0.7030   -0.8170 C.2     1  UNL1        0.0040
      9  C          6.0410   -0.3230    1.2890 C.2     1  UNL1        0.0040
     10  C          5.4980    1.7510   -0.4130 C.2     1  UNL1        0.0000
     11  C          5.2440    0.7270    1.6920 C.2     1  UNL1        0.0000
     12  C          4.9570    1.7820    0.8560 C.2     1  UNL1        0.0000
@<TRIPOS>BOND
     1     5     4    1
     2     4     2    1
     3     8    10    1
     4     8     7    2
     5     6     7    1
     6     6     1    1
     7    10    12    2
     8     7     9    1
     9     2     1    1
    10     2     3    2
    11    12    11    1
    12     9    11    2
