@<TRIPOS>MOLECULE
/home/cewinharhar/GITHUB/reincatalyze/data/processed/docking_pred/2023-Apr-25-2248_maxeplen10_maxtrainstep1000_exh16_gamma099_lrac3e-4_lrcr1e-3/6070aa1b8336213875ea865ca7f6d729a9af33a9_ligand_2.pdbqt
 12 12 0 0 0
SMALL
GASTEIGER

@<TRIPOS>ATOM
      1  C          8.4670   -0.7040   -2.0780 C.3     1  UNL1        0.1270
      2  C          8.4700   -1.9340   -2.8890 C.2     1  UNL1        0.3030
      3  O          9.5660   -2.5130   -3.1210 O.2     1  UNL1       -0.2520
      4  O          7.2920   -2.4870   -3.4140 O.3     1  UNL1       -0.4810
      5  H          6.8170   -3.2040   -2.8820 H       1  UNL1        0.2960
      6  C          7.1260    0.0060   -2.1180 C.3     1  UNL1        0.0470
      7  C          6.5270    0.0890   -0.7600 C.2     1  UNL1       -0.0470
      8  C          5.8440    1.2270   -0.3560 C.2     1  UNL1        0.0040
      9  C          6.6220   -0.9360    0.1640 C.2     1  UNL1        0.0040
     10  C          5.2870    1.3390    0.8980 C.2     1  UNL1        0.0000
     11  C          6.0640   -0.8220    1.4190 C.2     1  UNL1        0.0000
     12  C          5.3890    0.3110    1.8130 C.2     1  UNL1        0.0000
@<TRIPOS>BOND
     1     4     2    1
     2     4     5    1
     3     3     2    2
     4     2     1    1
     5     6     1    1
     6     6     7    1
     7     7     8    2
     8     7     9    1
     9     8    10    1
    10     9    11    2
    11    10    12    2
    12    11    12    1
