@<TRIPOS>MOLECULE
/home/cewinharhar/GITHUB/reincatalyze/data/processed/docking_pred/2023-Apr-25-2248_maxeplen10_maxtrainstep1000_exh16_gamma099_lrac3e-4_lrcr1e-3/6070aa1b8336213875ea865ca7f6d729a9af33a9_ligand_2.pdbqt
 12 12 0 0 0
SMALL
GASTEIGER

@<TRIPOS>ATOM
      1  C          8.3860   -0.6350   -2.1510 C.3     1  UNL1        0.1270
      2  C          8.3930   -1.9070   -2.8950 C.2     1  UNL1        0.3030
      3  O          7.2950   -2.4190   -3.2420 O.2     1  UNL1       -0.2520
      4  O          9.5820   -2.5690   -3.2320 O.3     1  UNL1       -0.4810
      5  H          9.7300   -3.5060   -2.8820 H       1  UNL1        0.2960
      6  C          7.0170    0.0200   -2.1470 C.3     1  UNL1        0.0470
      7  C          6.4760    0.1160   -0.7660 C.2     1  UNL1       -0.0470
      8  C          6.6260   -0.9350    0.1270 C.2     1  UNL1        0.0040
      9  C          5.7970    1.2280   -0.3030 C.2     1  UNL1        0.0040
     10  C          6.1280   -0.8810    1.4090 C.2     1  UNL1        0.0000
     11  C          5.2980    1.2800    0.9800 C.2     1  UNL1        0.0000
     12  C          5.4500    0.2330    1.8610 C.2     1  UNL1        0.0000
@<TRIPOS>BOND
     1     3     2    2
     2     4     2    1
     3     4     5    1
     4     2     1    1
     5     1     6    1
     6     6     7    1
     7     7     9    2
     8     7     8    1
     9     9    11    1
    10     8    10    2
    11    11    12    2
    12    10    12    1
