MODEL 1
REMARK VINA RESULT:      -7.3      0.000      0.000
REMARK SMILES O=C(O)CCc1ccccc1
REMARK SMILES IDX 4 1 2 2 1 3 3 4 5 6 6 7 7 8 11 9 8 10 10 11 9 12
REMARK H PARENT 3 5
REMARK Flexibility Score: inf
ROOT
ATOM      1  C   UNL     1       8.467  -0.704  -2.078  1.00  0.00     0.127 C 
ENDROOT
BRANCH   1   2
ATOM      2  C   UNL     1       8.470  -1.934  -2.889  1.00  0.00     0.303 C 
ATOM      3  O   UNL     1       9.566  -2.513  -3.121  1.00  0.00    -0.252 OA
BRANCH   2   4
ATOM      4  O   UNL     1       7.292  -2.487  -3.414  1.00  0.00    -0.481 OA
ATOM      5  H   UNL     1       6.817  -3.204  -2.882  1.00  0.00     0.296 HD
ENDBRANCH   2   4
ENDBRANCH   1   2
BRANCH   1   6
ATOM      6  C   UNL     1       7.126   0.006  -2.118  1.00  0.00     0.047 C 
BRANCH   6   7
ATOM      7  C   UNL     1       6.527   0.089  -0.760  1.00  0.00    -0.047 A 
ATOM      8  C   UNL     1       5.844   1.227  -0.356  1.00  0.00     0.004 A 
ATOM      9  C   UNL     1       6.622  -0.936   0.164  1.00  0.00     0.004 A 
ATOM     10  C   UNL     1       5.287   1.339   0.898  1.00  0.00     0.000 A 
ATOM     11  C   UNL     1       6.064  -0.822   1.419  1.00  0.00     0.000 A 
ATOM     12  C   UNL     1       5.389   0.311   1.813  1.00  0.00     0.000 A 
ENDBRANCH   6   7
ENDBRANCH   1   6
TORSDOF 4
ENDMDL
MODEL 2
REMARK VINA RESULT:      -7.2      0.107      1.725
REMARK SMILES O=C(O)CCc1ccccc1
REMARK SMILES IDX 4 1 2 2 1 3 3 4 5 6 6 7 7 8 11 9 8 10 10 11 9 12
REMARK H PARENT 3 5
REMARK Flexibility Score: inf
ROOT
ATOM      1  C   UNL     1       8.386  -0.635  -2.151  1.00  0.00     0.127 C 
ENDROOT
BRANCH   1   2
ATOM      2  C   UNL     1       8.393  -1.907  -2.895  1.00  0.00     0.303 C 
ATOM      3  O   UNL     1       7.295  -2.419  -3.242  1.00  0.00    -0.252 OA
BRANCH   2   4
ATOM      4  O   UNL     1       9.582  -2.569  -3.232  1.00  0.00    -0.481 OA
ATOM      5  H   UNL     1       9.730  -3.506  -2.882  1.00  0.00     0.296 HD
ENDBRANCH   2   4
ENDBRANCH   1   2
BRANCH   1   6
ATOM      6  C   UNL     1       7.017   0.020  -2.147  1.00  0.00     0.047 C 
BRANCH   6   7
ATOM      7  C   UNL     1       6.476   0.116  -0.766  1.00  0.00    -0.047 A 
ATOM      8  C   UNL     1       6.626  -0.935   0.127  1.00  0.00     0.004 A 
ATOM      9  C   UNL     1       5.797   1.228  -0.303  1.00  0.00     0.004 A 
ATOM     10  C   UNL     1       6.128  -0.881   1.409  1.00  0.00     0.000 A 
ATOM     11  C   UNL     1       5.298   1.280   0.980  1.00  0.00     0.000 A 
ATOM     12  C   UNL     1       5.450   0.233   1.861  1.00  0.00     0.000 A 
ENDBRANCH   6   7
ENDBRANCH   1   6
TORSDOF 4
ENDMDL
MODEL 3
REMARK VINA RESULT:      -6.8      3.388      5.091
REMARK SMILES O=C(O)CCc1ccccc1
REMARK SMILES IDX 4 1 2 2 1 3 3 4 5 6 6 7 7 8 11 9 8 10 10 11 9 12
REMARK H PARENT 3 5
REMARK Flexibility Score: inf
ROOT
ATOM      1  C   UNL     1       4.970   1.793   0.731  1.00  0.00     0.127 C 
ENDROOT
BRANCH   1   2
ATOM      2  C   UNL     1       4.452   1.107   1.928  1.00  0.00     0.303 C 
ATOM      3  O   UNL     1       5.140   0.190   2.454  1.00  0.00    -0.252 OA
BRANCH   2   4
ATOM      4  O   UNL     1       3.218   1.438   2.505  1.00  0.00    -0.481 OA
ATOM      5  H   UNL     1       3.099   2.364   2.893  1.00  0.00     0.296 HD
ENDBRANCH   2   4
ENDBRANCH   1   2
BRANCH   1   6
ATOM      6  C   UNL     1       6.482   1.927   0.756  1.00  0.00     0.047 C 
BRANCH   6   7
ATOM      7  C   UNL     1       7.105   1.119  -0.325  1.00  0.00    -0.047 A 
ATOM      8  C   UNL     1       8.458   1.239  -0.608  1.00  0.00     0.004 A 
ATOM      9  C   UNL     1       6.388   0.226  -1.100  1.00  0.00     0.004 A 
ATOM     10  C   UNL     1       9.063   0.513  -1.608  1.00  0.00     0.000 A 
ATOM     11  C   UNL     1       6.995  -0.501  -2.102  1.00  0.00     0.000 A 
ATOM     12  C   UNL     1       8.338  -0.374  -2.378  1.00  0.00     0.000 A 
ENDBRANCH   6   7
ENDBRANCH   1   6
TORSDOF 4
ENDMDL
MODEL 4
REMARK VINA RESULT:      -6.6      2.038      2.518
REMARK SMILES O=C(O)CCc1ccccc1
REMARK SMILES IDX 4 1 2 2 1 3 3 4 5 6 6 7 7 8 11 9 8 10 10 11 9 12
REMARK H PARENT 3 5
REMARK Flexibility Score: inf
ROOT
ATOM      1  C   UNL     1       7.986  -2.281   0.728  1.00  0.00     0.127 C 
ENDROOT
BRANCH   1   2
ATOM      2  C   UNL     1       8.792  -3.435   0.293  1.00  0.00     0.303 C 
ATOM      3  O   UNL     1       9.661  -3.904   1.077  1.00  0.00    -0.252 OA
BRANCH   2   4
ATOM      4  O   UNL     1       8.625  -4.033  -0.964  1.00  0.00    -0.481 OA
ATOM      5  H   UNL     1       8.471  -3.437  -1.766  1.00  0.00     0.296 HD
ENDBRANCH   2   4
ENDBRANCH   1   2
BRANCH   1   6
ATOM      6  C   UNL     1       7.460  -1.473  -0.445  1.00  0.00     0.047 C 
BRANCH   6   7
ATOM      7  C   UNL     1       6.588  -0.363   0.020  1.00  0.00    -0.047 A 
ATOM      8  C   UNL     1       6.293   0.703  -0.817  1.00  0.00     0.004 A 
ATOM      9  C   UNL     1       6.041  -0.323   1.289  1.00  0.00     0.004 A 
ATOM     10  C   UNL     1       5.498   1.751  -0.413  1.00  0.00     0.000 A 
ATOM     11  C   UNL     1       5.244   0.727   1.692  1.00  0.00     0.000 A 
ATOM     12  C   UNL     1       4.957   1.782   0.856  1.00  0.00     0.000 A 
ENDBRANCH   6   7
ENDBRANCH   1   6
TORSDOF 4
ENDMDL
MODEL 5
REMARK VINA RESULT:      -6.5      2.070      2.745
REMARK SMILES O=C(O)CCc1ccccc1
REMARK SMILES IDX 4 1 2 2 1 3 3 4 5 6 6 7 7 8 11 9 8 10 10 11 9 12
REMARK H PARENT 3 5
REMARK Flexibility Score: inf
ROOT
ATOM      1  C   UNL     1       8.524   0.660  -1.686  1.00  0.00     0.127 C 
ENDROOT
BRANCH   1   2
ATOM      2  C   UNL     1       9.669   0.283  -0.838  1.00  0.00     0.303 C 
ATOM      3  O   UNL     1       9.485  -0.516   0.120  1.00  0.00    -0.252 OA
BRANCH   2   4
ATOM      4  O   UNL     1      10.960   0.782  -1.061  1.00  0.00    -0.481 OA
ATOM      5  H   UNL     1      11.101   1.784  -1.046  1.00  0.00     0.296 HD
ENDBRANCH   2   4
ENDBRANCH   1   2
BRANCH   1   6
ATOM      6  C   UNL     1       7.319  -0.235  -1.453  1.00  0.00     0.047 C 
BRANCH   6   7
ATOM      7  C   UNL     1       6.430   0.331  -0.405  1.00  0.00    -0.047 A 
ATOM      8  C   UNL     1       6.201  -0.358   0.777  1.00  0.00     0.004 A 
ATOM      9  C   UNL     1       5.784   1.546  -0.548  1.00  0.00     0.004 A 
ATOM     10  C   UNL     1       5.376   0.134   1.761  1.00  0.00     0.000 A 
ATOM     11  C   UNL     1       4.958   2.037   0.440  1.00  0.00     0.000 A 
ATOM     12  C   UNL     1       4.735   1.347   1.609  1.00  0.00     0.000 A 
ENDBRANCH   6   7
ENDBRANCH   1   6
TORSDOF 4
ENDMDL
