@<TRIPOS>MOLECULE
/home/cewinharhar/GITHUB/reincatalyze/data/processed/docking_pred/2023-Apr-25-2248_maxeplen10_maxtrainstep1000_exh16_gamma099_lrac3e-4_lrcr1e-3/62f66f9004302081042513b5faa006f3d97c65a4_ligand_2.pdbqt
 12 12 0 0 0
SMALL
GASTEIGER

@<TRIPOS>ATOM
      1  C          5.0000    1.7670    0.7330 C.3     1  UNL1        0.1270
      2  C          4.4670    1.1000    1.9350 C.2     1  UNL1        0.3030
      3  O          5.1480    0.1910    2.4830 O.2     1  UNL1       -0.2520
      4  O          3.2260    1.4420    2.4920 O.3     1  UNL1       -0.4810
      5  H          2.8530    2.3640    2.3100 H       1  UNL1        0.2960
      6  C          6.5140    1.8750    0.7610 C.3     1  UNL1        0.0470
      7  C          7.1260    1.0640   -0.3240 C.2     1  UNL1       -0.0470
      8  C          8.4620    1.2250   -0.6600 C.2     1  UNL1        0.0040
      9  C          6.4130    0.1300   -1.0530 C.2     1  UNL1        0.0040
     10  C          9.0550    0.4970   -1.6660 C.2     1  UNL1        0.0000
     11  C          7.0080   -0.5980   -2.0610 C.2     1  UNL1        0.0000
     12  C          8.3350   -0.4320   -2.3890 C.2     1  UNL1        0.0000
@<TRIPOS>BOND
     1    12    11    2
     2    12    10    1
     3    11     9    1
     4    10     8    2
     5     9     7    2
     6     8     7    1
     7     7     6    1
     8     1     6    1
     9     1     2    1
    10     2     3    2
    11     2     4    1
    12     5     4    1
