@<TRIPOS>MOLECULE
/home/cewinharhar/GITHUB/reincatalyze/data/processed/docking_pred/2023-Apr-25-2248_maxeplen10_maxtrainstep1000_exh16_gamma099_lrac3e-4_lrcr1e-3/62f66f9004302081042513b5faa006f3d97c65a4_ligand_2.pdbqt
 12 12 0 0 0
SMALL
GASTEIGER

@<TRIPOS>ATOM
      1  C          8.2310   -1.5500    0.8920 C.3     1  UNL1        0.1270
      2  C          8.4930   -2.8200    0.1920 C.2     1  UNL1        0.3030
      3  O          9.0640   -3.7560    0.8140 O.2     1  UNL1       -0.2520
      4  O          8.1280   -3.0250   -1.1470 O.3     1  UNL1       -0.4810
      5  H          8.6120   -3.7380   -1.6760 H       1  UNL1        0.2960
      6  C          6.7870   -1.4310    1.3430 C.3     1  UNL1        0.0470
      7  C          6.1740   -0.1720    0.8440 C.2     1  UNL1       -0.0470
      8  C          6.4160    0.2680   -0.4500 C.2     1  UNL1        0.0040
      9  C          5.3550    0.6220    1.6240 C.2     1  UNL1        0.0040
     10  C          5.8730    1.4340   -0.9380 C.2     1  UNL1        0.0000
     11  C          4.8110    1.7900    1.1330 C.2     1  UNL1        0.0000
     12  C          5.0570    2.2200   -0.1510 C.2     1  UNL1        0.0000
@<TRIPOS>BOND
     1     5     4    1
     2     4     2    1
     3    10     8    1
     4    10    12    2
     5     8     7    2
     6    12    11    1
     7     2     3    2
     8     2     1    1
     9     7     6    1
    10     7     9    1
    11     1     6    1
    12    11     9    2
