@<TRIPOS>MOLECULE
/home/cewinharhar/GITHUB/reincatalyze/data/processed/docking_pred/2023-Apr-25-2248_maxeplen10_maxtrainstep1000_exh16_gamma099_lrac3e-4_lrcr1e-3/62f66f9004302081042513b5faa006f3d97c65a4_ligand_2.pdbqt
 12 12 0 0 0
SMALL
GASTEIGER

@<TRIPOS>ATOM
      1  C          8.3980   -0.7390   -2.0350 C.3     1  UNL1        0.1270
      2  C          8.4190   -1.9490   -2.8760 C.2     1  UNL1        0.3030
      3  O          9.5180   -2.5300   -3.0850 O.2     1  UNL1       -0.2520
      4  O          7.2560   -2.4800   -3.4520 O.3     1  UNL1       -0.4810
      5  H          7.3460   -3.2470   -4.1040 H       1  UNL1        0.2960
      6  C          7.0500   -0.0410   -2.0670 C.3     1  UNL1        0.0470
      7  C          6.4780    0.0760   -0.7000 C.2     1  UNL1       -0.0470
      8  C          6.5790   -0.9740    0.2010 C.2     1  UNL1        0.0040
      9  C          5.8180    1.2080   -0.2600 C.2     1  UNL1        0.0040
     10  C          6.0520   -0.9010    1.4700 C.2     1  UNL1        0.0000
     11  C          5.2900    1.2790    1.0120 C.2     1  UNL1        0.0000
     12  C          5.3930    0.2330    1.9000 C.2     1  UNL1        0.0000
@<TRIPOS>BOND
     1     5     4    1
     2     4     2    1
     3     3     2    2
     4     2     1    1
     5     6     1    1
     6     6     7    1
     7     7     9    2
     8     7     8    1
     9     9    11    1
    10     8    10    2
    11    11    12    2
    12    10    12    1
