@<TRIPOS>MOLECULE
/home/cewinharhar/GITHUB/reincatalyze/data/processed/docking_pred/2023-Apr-25-2248_maxeplen10_maxtrainstep1000_exh16_gamma099_lrac3e-4_lrcr1e-3/62f66f9004302081042513b5faa006f3d97c65a4_ligand_2.pdbqt
 12 12 0 0 0
SMALL
GASTEIGER

@<TRIPOS>ATOM
      1  C          8.4570   -0.6950   -2.0870 C.3     1  UNL1        0.1270
      2  C          8.4640   -1.9370   -2.8790 C.2     1  UNL1        0.3030
      3  O          9.5580   -2.5330   -3.0740 O.2     1  UNL1       -0.2520
      4  O          7.2930   -2.4830   -3.4250 O.3     1  UNL1       -0.4810
      5  H          6.7360   -3.1020   -2.8520 H       1  UNL1        0.2960
      6  C          7.1050   -0.0060   -2.1110 C.3     1  UNL1        0.0470
      7  C          6.5180    0.0620   -0.7470 C.2     1  UNL1       -0.0470
      8  C          5.8320    1.1930   -0.3280 C.2     1  UNL1        0.0040
      9  C          6.6260   -0.9700    0.1660 C.2     1  UNL1        0.0040
     10  C          5.2870    1.2920    0.9320 C.2     1  UNL1        0.0000
     11  C          6.0780   -0.8700    1.4280 C.2     1  UNL1        0.0000
     12  C          5.4010    0.2560    1.8370 C.2     1  UNL1        0.0000
@<TRIPOS>BOND
     1     4     2    1
     2     4     5    1
     3     3     2    2
     4     2     1    1
     5     6     1    1
     6     6     7    1
     7     7     8    2
     8     7     9    1
     9     8    10    1
    10     9    11    2
    11    10    12    2
    12    11    12    1
