@<TRIPOS>MOLECULE
/home/cewinharhar/GITHUB/reincatalyze/data/processed/docking_pred/2023-Apr-25-2248_maxeplen10_maxtrainstep1000_exh16_gamma099_lrac3e-4_lrcr1e-3/62f66f9004302081042513b5faa006f3d97c65a4_ligand_2.pdbqt
 12 12 0 0 0
SMALL
GASTEIGER

@<TRIPOS>ATOM
      1  C          8.1570    0.2430   -2.1350 C.3     1  UNL1        0.1270
      2  C          9.3260    0.3760   -1.2470 C.2     1  UNL1        0.3030
      3  O          9.4370   -0.4020   -0.2620 O.2     1  UNL1       -0.2520
      4  O         10.3210    1.3400   -1.4610 O.3     1  UNL1       -0.4810
      5  H         10.4550    2.0600   -0.7640 H       1  UNL1        0.2960
      6  C          7.0710   -0.6260   -1.5280 C.3     1  UNL1        0.0470
      7  C          6.3280    0.1110   -0.4720 C.2     1  UNL1       -0.0470
      8  C          6.1510   -0.4440    0.7880 C.2     1  UNL1        0.0040
      9  C          5.7720    1.3590   -0.6810 C.2     1  UNL1        0.0040
     10  C          5.4600    0.2070    1.7830 C.2     1  UNL1        0.0000
     11  C          5.0790    2.0110    0.3170 C.2     1  UNL1        0.0000
     12  C          4.9070    1.4530    1.5640 C.2     1  UNL1        0.0000
@<TRIPOS>BOND
     1     1     6    1
     2     1     2    1
     3     6     7    1
     4     4     2    1
     5     4     5    1
     6     2     3    2
     7     9     7    2
     8     9    11    1
     9     7     8    1
    10    11    12    2
    11     8    10    2
    12    12    10    1
