MODEL 1
REMARK VINA RESULT:      -7.4      0.000      0.000
REMARK SMILES O=C(O)CCc1ccccc1
REMARK SMILES IDX 4 1 2 2 1 3 3 4 5 6 6 7 7 8 11 9 8 10 10 11 9 12
REMARK H PARENT 3 5
REMARK Flexibility Score: inf
ROOT
ATOM      1  C   UNL     1       8.457  -0.695  -2.087  1.00  0.00     0.127 C 
ENDROOT
BRANCH   1   2
ATOM      2  C   UNL     1       8.464  -1.937  -2.879  1.00  0.00     0.303 C 
ATOM      3  O   UNL     1       9.558  -2.533  -3.074  1.00  0.00    -0.252 OA
BRANCH   2   4
ATOM      4  O   UNL     1       7.293  -2.483  -3.425  1.00  0.00    -0.481 OA
ATOM      5  H   UNL     1       6.736  -3.102  -2.852  1.00  0.00     0.296 HD
ENDBRANCH   2   4
ENDBRANCH   1   2
BRANCH   1   6
ATOM      6  C   UNL     1       7.105  -0.006  -2.111  1.00  0.00     0.047 C 
BRANCH   6   7
ATOM      7  C   UNL     1       6.518   0.062  -0.747  1.00  0.00    -0.047 A 
ATOM      8  C   UNL     1       5.832   1.193  -0.328  1.00  0.00     0.004 A 
ATOM      9  C   UNL     1       6.626  -0.970   0.166  1.00  0.00     0.004 A 
ATOM     10  C   UNL     1       5.287   1.292   0.932  1.00  0.00     0.000 A 
ATOM     11  C   UNL     1       6.078  -0.870   1.428  1.00  0.00     0.000 A 
ATOM     12  C   UNL     1       5.401   0.256   1.837  1.00  0.00     0.000 A 
ENDBRANCH   6   7
ENDBRANCH   1   6
TORSDOF 4
ENDMDL
MODEL 2
REMARK VINA RESULT:      -7.3      0.066      1.422
REMARK SMILES O=C(O)CCc1ccccc1
REMARK SMILES IDX 4 1 2 2 1 3 3 4 5 6 6 7 7 8 11 9 8 10 10 11 9 12
REMARK H PARENT 3 5
REMARK Flexibility Score: inf
ROOT
ATOM      1  C   UNL     1       8.398  -0.739  -2.035  1.00  0.00     0.127 C 
ENDROOT
BRANCH   1   2
ATOM      2  C   UNL     1       8.419  -1.949  -2.876  1.00  0.00     0.303 C 
ATOM      3  O   UNL     1       9.518  -2.530  -3.085  1.00  0.00    -0.252 OA
BRANCH   2   4
ATOM      4  O   UNL     1       7.256  -2.480  -3.452  1.00  0.00    -0.481 OA
ATOM      5  H   UNL     1       7.346  -3.247  -4.104  1.00  0.00     0.296 HD
ENDBRANCH   2   4
ENDBRANCH   1   2
BRANCH   1   6
ATOM      6  C   UNL     1       7.050  -0.041  -2.067  1.00  0.00     0.047 C 
BRANCH   6   7
ATOM      7  C   UNL     1       6.478   0.076  -0.700  1.00  0.00    -0.047 A 
ATOM      8  C   UNL     1       6.579  -0.974   0.201  1.00  0.00     0.004 A 
ATOM      9  C   UNL     1       5.818   1.208  -0.260  1.00  0.00     0.004 A 
ATOM     10  C   UNL     1       6.052  -0.901   1.470  1.00  0.00     0.000 A 
ATOM     11  C   UNL     1       5.290   1.279   1.012  1.00  0.00     0.000 A 
ATOM     12  C   UNL     1       5.393   0.233   1.900  1.00  0.00     0.000 A 
ENDBRANCH   6   7
ENDBRANCH   1   6
TORSDOF 4
ENDMDL
MODEL 3
REMARK VINA RESULT:      -6.8      3.394      5.082
REMARK SMILES O=C(O)CCc1ccccc1
REMARK SMILES IDX 4 1 2 2 1 3 3 4 5 6 6 7 7 8 11 9 8 10 10 11 9 12
REMARK H PARENT 3 5
REMARK Flexibility Score: inf
ROOT
ATOM      1  C   UNL     1       5.000   1.767   0.733  1.00  0.00     0.127 C 
ENDROOT
BRANCH   1   2
ATOM      2  C   UNL     1       4.467   1.100   1.935  1.00  0.00     0.303 C 
ATOM      3  O   UNL     1       5.148   0.191   2.483  1.00  0.00    -0.252 OA
BRANCH   2   4
ATOM      4  O   UNL     1       3.226   1.442   2.492  1.00  0.00    -0.481 OA
ATOM      5  H   UNL     1       2.853   2.364   2.310  1.00  0.00     0.296 HD
ENDBRANCH   2   4
ENDBRANCH   1   2
BRANCH   1   6
ATOM      6  C   UNL     1       6.514   1.875   0.761  1.00  0.00     0.047 C 
BRANCH   6   7
ATOM      7  C   UNL     1       7.126   1.064  -0.324  1.00  0.00    -0.047 A 
ATOM      8  C   UNL     1       8.462   1.225  -0.660  1.00  0.00     0.004 A 
ATOM      9  C   UNL     1       6.413   0.130  -1.053  1.00  0.00     0.004 A 
ATOM     10  C   UNL     1       9.055   0.497  -1.666  1.00  0.00     0.000 A 
ATOM     11  C   UNL     1       7.008  -0.598  -2.061  1.00  0.00     0.000 A 
ATOM     12  C   UNL     1       8.335  -0.432  -2.389  1.00  0.00     0.000 A 
ENDBRANCH   6   7
ENDBRANCH   1   6
TORSDOF 4
ENDMDL
MODEL 4
REMARK VINA RESULT:      -6.6      1.927      2.625
REMARK SMILES O=C(O)CCc1ccccc1
REMARK SMILES IDX 4 1 2 2 1 3 3 4 5 6 6 7 7 8 11 9 8 10 10 11 9 12
REMARK H PARENT 3 5
REMARK Flexibility Score: inf
ROOT
ATOM      1  C   UNL     1       8.157   0.243  -2.135  1.00  0.00     0.127 C 
ENDROOT
BRANCH   1   2
ATOM      2  C   UNL     1       9.326   0.376  -1.247  1.00  0.00     0.303 C 
ATOM      3  O   UNL     1       9.437  -0.402  -0.262  1.00  0.00    -0.252 OA
BRANCH   2   4
ATOM      4  O   UNL     1      10.321   1.340  -1.461  1.00  0.00    -0.481 OA
ATOM      5  H   UNL     1      10.455   2.060  -0.764  1.00  0.00     0.296 HD
ENDBRANCH   2   4
ENDBRANCH   1   2
BRANCH   1   6
ATOM      6  C   UNL     1       7.071  -0.626  -1.528  1.00  0.00     0.047 C 
BRANCH   6   7
ATOM      7  C   UNL     1       6.328   0.111  -0.472  1.00  0.00    -0.047 A 
ATOM      8  C   UNL     1       6.151  -0.444   0.788  1.00  0.00     0.004 A 
ATOM      9  C   UNL     1       5.772   1.359  -0.681  1.00  0.00     0.004 A 
ATOM     10  C   UNL     1       5.460   0.207   1.783  1.00  0.00     0.000 A 
ATOM     11  C   UNL     1       5.079   2.011   0.317  1.00  0.00     0.000 A 
ATOM     12  C   UNL     1       4.907   1.453   1.564  1.00  0.00     0.000 A 
ENDBRANCH   6   7
ENDBRANCH   1   6
TORSDOF 4
ENDMDL
MODEL 5
REMARK VINA RESULT:      -6.6      1.855      2.824
REMARK SMILES O=C(O)CCc1ccccc1
REMARK SMILES IDX 4 1 2 2 1 3 3 4 5 6 6 7 7 8 11 9 8 10 10 11 9 12
REMARK H PARENT 3 5
REMARK Flexibility Score: inf
ROOT
ATOM      1  C   UNL     1       8.231  -1.550   0.892  1.00  0.00     0.127 C 
ENDROOT
BRANCH   1   2
ATOM      2  C   UNL     1       8.493  -2.820   0.192  1.00  0.00     0.303 C 
ATOM      3  O   UNL     1       9.064  -3.756   0.814  1.00  0.00    -0.252 OA
BRANCH   2   4
ATOM      4  O   UNL     1       8.128  -3.025  -1.147  1.00  0.00    -0.481 OA
ATOM      5  H   UNL     1       8.612  -3.738  -1.676  1.00  0.00     0.296 HD
ENDBRANCH   2   4
ENDBRANCH   1   2
BRANCH   1   6
ATOM      6  C   UNL     1       6.787  -1.431   1.343  1.00  0.00     0.047 C 
BRANCH   6   7
ATOM      7  C   UNL     1       6.174  -0.172   0.844  1.00  0.00    -0.047 A 
ATOM      8  C   UNL     1       6.416   0.268  -0.450  1.00  0.00     0.004 A 
ATOM      9  C   UNL     1       5.355   0.622   1.624  1.00  0.00     0.004 A 
ATOM     10  C   UNL     1       5.873   1.434  -0.938  1.00  0.00     0.000 A 
ATOM     11  C   UNL     1       4.811   1.790   1.133  1.00  0.00     0.000 A 
ATOM     12  C   UNL     1       5.057   2.220  -0.151  1.00  0.00     0.000 A 
ENDBRANCH   6   7
ENDBRANCH   1   6
TORSDOF 4
ENDMDL
