@<TRIPOS>MOLECULE
/home/cewinharhar/GITHUB/reincatalyze/data/processed/docking_pred/2023-Apr-25-2248_maxeplen10_maxtrainstep1000_exh16_gamma099_lrac3e-4_lrcr1e-3/64ade7361adfbcba1ebdf367c3e16aacabd62181_ligand_2.pdbqt
 12 12 0 0 0
SMALL
GASTEIGER

@<TRIPOS>ATOM
      1  C          8.0150   -0.8660   -2.0450 C.3     1  UNL1        0.1270
      2  C          8.2430   -1.9920   -2.9670 C.2     1  UNL1        0.3030
      3  O          9.4140   -2.4370   -3.1130 O.2     1  UNL1       -0.2520
      4  O          7.2000   -2.5900   -3.6910 O.3     1  UNL1       -0.4810
      5  H          6.7820   -2.0730   -4.4520 H       1  UNL1        0.2960
      6  C          7.4570   -1.3220   -0.7090 C.3     1  UNL1        0.0470
      7  C          6.5880   -0.2770   -0.1090 C.2     1  UNL1       -0.0470
      8  C          6.1170   -0.4070    1.1900 C.2     1  UNL1        0.0040
      9  C          6.1970    0.8570   -0.7980 C.2     1  UNL1        0.0040
     10  C          5.3020    0.5380    1.7700 C.2     1  UNL1        0.0000
     11  C          5.3800    1.8030   -0.2160 C.2     1  UNL1        0.0000
     12  C          4.9170    1.6660    1.0730 C.2     1  UNL1        0.0000
@<TRIPOS>BOND
     1     5     4    1
     2     4     2    1
     3     3     2    2
     4     2     1    1
     5     1     6    1
     6     9    11    1
     7     9     7    2
     8     6     7    1
     9    11    12    2
    10     7     8    1
    11    12    10    1
    12     8    10    2
