@<TRIPOS>MOLECULE
/home/cewinharhar/GITHUB/reincatalyze/data/processed/docking_pred/2023-Apr-25-2248_maxeplen10_maxtrainstep1000_exh16_gamma099_lrac3e-4_lrcr1e-3/64ade7361adfbcba1ebdf367c3e16aacabd62181_ligand_2.pdbqt
 12 12 0 0 0
SMALL
GASTEIGER

@<TRIPOS>ATOM
      1  C          8.2460   -0.9310   -1.8670 C.3     1  UNL1        0.1270
      2  C          8.3700   -2.0250   -2.8460 C.2     1  UNL1        0.3030
      3  O          9.5070   -2.5230   -3.0670 O.2     1  UNL1       -0.2520
      4  O          7.2640   -2.5360   -3.5400 O.3     1  UNL1       -0.4810
      5  H          6.4660   -1.9330   -3.6890 H       1  UNL1        0.2960
      6  C          7.5800   -1.3850   -0.5800 C.3     1  UNL1        0.0470
      7  C          6.6710   -0.3340   -0.0520 C.2     1  UNL1       -0.0470
      8  C          6.3720    0.7890   -0.8090 C.2     1  UNL1        0.0040
      9  C          6.0920   -0.4070    1.2020 C.2     1  UNL1        0.0040
     10  C          5.5420    1.7840   -0.3440 C.2     1  UNL1        0.0000
     11  C          5.2610    0.5900    1.6660 C.2     1  UNL1        0.0000
     12  C          4.9700    1.7020    0.9090 C.2     1  UNL1        0.0000
@<TRIPOS>BOND
     1     5     4    1
     2     4     2    1
     3     3     2    2
     4     2     1    1
     5     1     6    1
     6     8    10    1
     7     8     7    2
     8     6     7    1
     9    10    12    2
    10     7     9    1
    11    12    11    1
    12     9    11    2
