@<TRIPOS>MOLECULE
/home/cewinharhar/GITHUB/reincatalyze/data/processed/docking_pred/2023-Apr-25-2248_maxeplen10_maxtrainstep1000_exh16_gamma099_lrac3e-4_lrcr1e-3/64ade7361adfbcba1ebdf367c3e16aacabd62181_ligand_2.pdbqt
 12 12 0 0 0
SMALL
GASTEIGER

@<TRIPOS>ATOM
      1  C          8.4180   -0.6370   -2.1350 C.3     1  UNL1        0.1270
      2  C          8.4550   -1.8970   -2.9000 C.2     1  UNL1        0.3030
      3  O          9.5650   -2.4650   -3.0880 O.2     1  UNL1       -0.2520
      4  O          7.2970   -2.4870   -3.4250 O.3     1  UNL1       -0.4810
      5  H          6.4120   -2.0160   -3.2940 H       1  UNL1        0.2960
      6  C          7.0350   -0.0100   -2.1300 C.3     1  UNL1        0.0470
      7  C          6.4870    0.0590   -0.7500 C.2     1  UNL1       -0.0470
      8  C          5.8290    1.1970   -0.3060 C.2     1  UNL1        0.0040
      9  C          6.6070   -0.9790    0.1560 C.2     1  UNL1        0.0040
     10  C          5.3200    1.2960    0.9680 C.2     1  UNL1        0.0000
     11  C          6.0970   -0.8780    1.4320 C.2     1  UNL1        0.0000
     12  C          5.4460    0.2550    1.8660 C.2     1  UNL1        0.0000
@<TRIPOS>BOND
     1     4     5    1
     2     4     2    1
     3     3     2    2
     4     2     1    1
     5     1     6    1
     6     6     7    1
     7     7     8    2
     8     7     9    1
     9     8    10    1
    10     9    11    2
    11    10    12    2
    12    11    12    1
