MODEL 1
REMARK VINA RESULT:      -7.3      0.000      0.000
REMARK SMILES O=C(O)CCc1ccccc1
REMARK SMILES IDX 4 1 2 2 1 3 3 4 5 6 6 7 7 8 11 9 8 10 10 11 9 12
REMARK H PARENT 3 5
REMARK Flexibility Score: inf
ROOT
ATOM      1  C   UNL     1       8.409  -0.656  -2.126  1.00  0.00     0.127 C 
ENDROOT
BRANCH   1   2
ATOM      2  C   UNL     1       8.451  -1.908  -2.902  1.00  0.00     0.303 C 
ATOM      3  O   UNL     1       9.561  -2.476  -3.089  1.00  0.00    -0.252 OA
BRANCH   2   4
ATOM      4  O   UNL     1       7.295  -2.493  -3.440  1.00  0.00    -0.481 OA
ATOM      5  H   UNL     1       6.394  -2.178  -3.107  1.00  0.00     0.296 HD
ENDBRANCH   2   4
ENDBRANCH   1   2
BRANCH   1   6
ATOM      6  C   UNL     1       7.033  -0.014  -2.145  1.00  0.00     0.047 C 
BRANCH   6   7
ATOM      7  C   UNL     1       6.483   0.106  -0.769  1.00  0.00    -0.047 A 
ATOM      8  C   UNL     1       6.600  -0.941   0.134  1.00  0.00     0.004 A 
ATOM      9  C   UNL     1       5.827   1.238  -0.322  1.00  0.00     0.004 A 
ATOM     10  C   UNL     1       6.092  -0.865   1.410  1.00  0.00     0.000 A 
ATOM     11  C   UNL     1       5.319   1.313   0.957  1.00  0.00     0.000 A 
ATOM     12  C   UNL     1       5.438   0.269   1.847  1.00  0.00     0.000 A 
ENDBRANCH   6   7
ENDBRANCH   1   6
TORSDOF 4
ENDMDL
MODEL 2
REMARK VINA RESULT:      -7.3      0.029      1.421
REMARK SMILES O=C(O)CCc1ccccc1
REMARK SMILES IDX 4 1 2 2 1 3 3 4 5 6 6 7 7 8 11 9 8 10 10 11 9 12
REMARK H PARENT 3 5
REMARK Flexibility Score: inf
ROOT
ATOM      1  C   UNL     1       8.418  -0.637  -2.135  1.00  0.00     0.127 C 
ENDROOT
BRANCH   1   2
ATOM      2  C   UNL     1       8.455  -1.897  -2.900  1.00  0.00     0.303 C 
ATOM      3  O   UNL     1       9.565  -2.465  -3.088  1.00  0.00    -0.252 OA
BRANCH   2   4
ATOM      4  O   UNL     1       7.297  -2.487  -3.425  1.00  0.00    -0.481 OA
ATOM      5  H   UNL     1       6.412  -2.016  -3.294  1.00  0.00     0.296 HD
ENDBRANCH   2   4
ENDBRANCH   1   2
BRANCH   1   6
ATOM      6  C   UNL     1       7.035  -0.010  -2.130  1.00  0.00     0.047 C 
BRANCH   6   7
ATOM      7  C   UNL     1       6.487   0.059  -0.750  1.00  0.00    -0.047 A 
ATOM      8  C   UNL     1       5.829   1.197  -0.306  1.00  0.00     0.004 A 
ATOM      9  C   UNL     1       6.607  -0.979   0.156  1.00  0.00     0.004 A 
ATOM     10  C   UNL     1       5.320   1.296   0.968  1.00  0.00     0.000 A 
ATOM     11  C   UNL     1       6.097  -0.878   1.432  1.00  0.00     0.000 A 
ATOM     12  C   UNL     1       5.446   0.255   1.866  1.00  0.00     0.000 A 
ENDBRANCH   6   7
ENDBRANCH   1   6
TORSDOF 4
ENDMDL
MODEL 3
REMARK VINA RESULT:      -7.1      0.644      1.629
REMARK SMILES O=C(O)CCc1ccccc1
REMARK SMILES IDX 4 1 2 2 1 3 3 4 5 6 6 7 7 8 11 9 8 10 10 11 9 12
REMARK H PARENT 3 5
REMARK Flexibility Score: inf
ROOT
ATOM      1  C   UNL     1       8.246  -0.931  -1.867  1.00  0.00     0.127 C 
ENDROOT
BRANCH   1   2
ATOM      2  C   UNL     1       8.370  -2.025  -2.846  1.00  0.00     0.303 C 
ATOM      3  O   UNL     1       9.507  -2.523  -3.067  1.00  0.00    -0.252 OA
BRANCH   2   4
ATOM      4  O   UNL     1       7.264  -2.536  -3.540  1.00  0.00    -0.481 OA
ATOM      5  H   UNL     1       6.466  -1.933  -3.689  1.00  0.00     0.296 HD
ENDBRANCH   2   4
ENDBRANCH   1   2
BRANCH   1   6
ATOM      6  C   UNL     1       7.580  -1.385  -0.580  1.00  0.00     0.047 C 
BRANCH   6   7
ATOM      7  C   UNL     1       6.671  -0.334  -0.052  1.00  0.00    -0.047 A 
ATOM      8  C   UNL     1       6.372   0.789  -0.809  1.00  0.00     0.004 A 
ATOM      9  C   UNL     1       6.092  -0.407   1.202  1.00  0.00     0.004 A 
ATOM     10  C   UNL     1       5.542   1.784  -0.344  1.00  0.00     0.000 A 
ATOM     11  C   UNL     1       5.261   0.590   1.666  1.00  0.00     0.000 A 
ATOM     12  C   UNL     1       4.970   1.702   0.909  1.00  0.00     0.000 A 
ENDBRANCH   6   7
ENDBRANCH   1   6
TORSDOF 4
ENDMDL
MODEL 4
REMARK VINA RESULT:      -7.1      0.627      1.137
REMARK SMILES O=C(O)CCc1ccccc1
REMARK SMILES IDX 4 1 2 2 1 3 3 4 5 6 6 7 7 8 11 9 8 10 10 11 9 12
REMARK H PARENT 3 5
REMARK Flexibility Score: inf
ROOT
ATOM      1  C   UNL     1       8.015  -0.866  -2.045  1.00  0.00     0.127 C 
ENDROOT
BRANCH   1   2
ATOM      2  C   UNL     1       8.243  -1.992  -2.967  1.00  0.00     0.303 C 
ATOM      3  O   UNL     1       9.414  -2.437  -3.113  1.00  0.00    -0.252 OA
BRANCH   2   4
ATOM      4  O   UNL     1       7.200  -2.590  -3.691  1.00  0.00    -0.481 OA
ATOM      5  H   UNL     1       6.782  -2.073  -4.452  1.00  0.00     0.296 HD
ENDBRANCH   2   4
ENDBRANCH   1   2
BRANCH   1   6
ATOM      6  C   UNL     1       7.457  -1.322  -0.709  1.00  0.00     0.047 C 
BRANCH   6   7
ATOM      7  C   UNL     1       6.588  -0.277  -0.109  1.00  0.00    -0.047 A 
ATOM      8  C   UNL     1       6.117  -0.407   1.190  1.00  0.00     0.004 A 
ATOM      9  C   UNL     1       6.197   0.857  -0.798  1.00  0.00     0.004 A 
ATOM     10  C   UNL     1       5.302   0.538   1.770  1.00  0.00     0.000 A 
ATOM     11  C   UNL     1       5.380   1.803  -0.216  1.00  0.00     0.000 A 
ATOM     12  C   UNL     1       4.917   1.666   1.073  1.00  0.00     0.000 A 
ENDBRANCH   6   7
ENDBRANCH   1   6
TORSDOF 4
ENDMDL
MODEL 5
REMARK VINA RESULT:      -6.8      3.403      5.105
REMARK SMILES O=C(O)CCc1ccccc1
REMARK SMILES IDX 4 1 2 2 1 3 3 4 5 6 6 7 7 8 11 9 8 10 10 11 9 12
REMARK H PARENT 3 5
REMARK Flexibility Score: inf
ROOT
ATOM      1  C   UNL     1       5.027   1.799   0.766  1.00  0.00     0.127 C 
ENDROOT
BRANCH   1   2
ATOM      2  C   UNL     1       4.463   1.115   1.943  1.00  0.00     0.303 C 
ATOM      3  O   UNL     1       5.122   0.186   2.486  1.00  0.00    -0.252 OA
BRANCH   2   4
ATOM      4  O   UNL     1       3.216   1.462   2.483  1.00  0.00    -0.481 OA
ATOM      5  H   UNL     1       2.390   1.000   2.128  1.00  0.00     0.296 HD
ENDBRANCH   2   4
ENDBRANCH   1   2
BRANCH   1   6
ATOM      6  C   UNL     1       6.544   1.850   0.804  1.00  0.00     0.047 C 
BRANCH   6   7
ATOM      7  C   UNL     1       7.132   1.047  -0.301  1.00  0.00    -0.047 A 
ATOM      8  C   UNL     1       8.455   1.225  -0.678  1.00  0.00     0.004 A 
ATOM      9  C   UNL     1       6.408   0.105  -1.008  1.00  0.00     0.004 A 
ATOM     10  C   UNL     1       9.026   0.506  -1.703  1.00  0.00     0.000 A 
ATOM     11  C   UNL     1       6.981  -0.615  -2.035  1.00  0.00     0.000 A 
ATOM     12  C   UNL     1       8.295  -0.432  -2.404  1.00  0.00     0.000 A 
ENDBRANCH   6   7
ENDBRANCH   1   6
TORSDOF 4
ENDMDL
