@<TRIPOS>MOLECULE
/home/cewinharhar/GITHUB/reincatalyze/data/processed/docking_pred/2023-Apr-25-2248_maxeplen10_maxtrainstep1000_exh16_gamma099_lrac3e-4_lrcr1e-3/64ade7361adfbcba1ebdf367c3e16aacabd62181_ligand_2.pdbqt
 12 12 0 0 0
SMALL
GASTEIGER

@<TRIPOS>ATOM
      1  C          8.4090   -0.6560   -2.1260 C.3     1  UNL1        0.1270
      2  C          8.4510   -1.9080   -2.9020 C.2     1  UNL1        0.3030
      3  O          9.5610   -2.4760   -3.0890 O.2     1  UNL1       -0.2520
      4  O          7.2950   -2.4930   -3.4400 O.3     1  UNL1       -0.4810
      5  H          6.3940   -2.1780   -3.1070 H       1  UNL1        0.2960
      6  C          7.0330   -0.0140   -2.1450 C.3     1  UNL1        0.0470
      7  C          6.4830    0.1060   -0.7690 C.2     1  UNL1       -0.0470
      8  C          6.6000   -0.9410    0.1340 C.2     1  UNL1        0.0040
      9  C          5.8270    1.2380   -0.3220 C.2     1  UNL1        0.0040
     10  C          6.0920   -0.8650    1.4100 C.2     1  UNL1        0.0000
     11  C          5.3190    1.3130    0.9570 C.2     1  UNL1        0.0000
     12  C          5.4380    0.2690    1.8470 C.2     1  UNL1        0.0000
@<TRIPOS>BOND
     1     4     5    1
     2     4     2    1
     3     3     2    2
     4     2     1    1
     5     6     1    1
     6     6     7    1
     7     7     9    2
     8     7     8    1
     9     9    11    1
    10     8    10    2
    11    11    12    2
    12    10    12    1
