@<TRIPOS>MOLECULE
/home/cewinharhar/GITHUB/reincatalyze/data/processed/docking_pred/2023-Apr-25-2248_maxeplen10_maxtrainstep1000_exh16_gamma099_lrac3e-4_lrcr1e-3/64ade7361adfbcba1ebdf367c3e16aacabd62181_ligand_2.pdbqt
 12 12 0 0 0
SMALL
GASTEIGER

@<TRIPOS>ATOM
      1  C          5.0270    1.7990    0.7660 C.3     1  UNL1        0.1270
      2  C          4.4630    1.1150    1.9430 C.2     1  UNL1        0.3030
      3  O          5.1220    0.1860    2.4860 O.2     1  UNL1       -0.2520
      4  O          3.2160    1.4620    2.4830 O.3     1  UNL1       -0.4810
      5  H          2.3900    1.0000    2.1280 H       1  UNL1        0.2960
      6  C          6.5440    1.8500    0.8040 C.3     1  UNL1        0.0470
      7  C          7.1320    1.0470   -0.3010 C.2     1  UNL1       -0.0470
      8  C          8.4550    1.2250   -0.6780 C.2     1  UNL1        0.0040
      9  C          6.4080    0.1050   -1.0080 C.2     1  UNL1        0.0040
     10  C          9.0260    0.5060   -1.7030 C.2     1  UNL1        0.0000
     11  C          6.9810   -0.6150   -2.0350 C.2     1  UNL1        0.0000
     12  C          8.2950   -0.4320   -2.4040 C.2     1  UNL1        0.0000
@<TRIPOS>BOND
     1    12    11    2
     2    12    10    1
     3    11     9    1
     4    10     8    2
     5     9     7    2
     6     8     7    1
     7     7     6    1
     8     1     6    1
     9     1     2    1
    10     2     4    1
    11     2     3    2
    12     5     4    1
