@<TRIPOS>MOLECULE
/home/cewinharhar/GITHUB/reincatalyze/data/processed/docking_pred/2023-Apr-25-2248_maxeplen10_maxtrainstep1000_exh16_gamma099_lrac3e-4_lrcr1e-3/650932a4c96e02f0afcc120cab6b741f416c7ae8_ligand_2.pdbqt
 12 12 0 0 0
SMALL
GASTEIGER

@<TRIPOS>ATOM
      1  C          8.2610    1.0370   -1.6900 C.3     1  UNL1        0.1270
      2  C          9.4960    0.2350   -1.6540 C.2     1  UNL1        0.3030
      3  O          9.5270   -0.8700   -2.2610 O.2     1  UNL1       -0.2520
      4  O         10.6430    0.6580   -0.9670 O.3     1  UNL1       -0.4810
      5  H         10.6360    1.5700   -0.5300 H       1  UNL1        0.2960
      6  C          7.0140    0.1710   -1.6960 C.3     1  UNL1        0.0470
      7  C          6.3680    0.1600   -0.3580 C.2     1  UNL1       -0.0470
      8  C          6.4890   -0.9410    0.4780 C.2     1  UNL1        0.0040
      9  C          5.6150    1.2180    0.1190 C.2     1  UNL1        0.0040
     10  C          5.8940   -0.9870    1.7180 C.2     1  UNL1        0.0000
     11  C          5.0200    1.1710    1.3610 C.2     1  UNL1        0.0000
     12  C          5.1440    0.0740    2.1840 C.2     1  UNL1        0.0000
@<TRIPOS>BOND
     1     3     2    2
     2     6     1    1
     3     6     7    1
     4     1     2    1
     5     2     4    1
     6     4     5    1
     7     7     9    2
     8     7     8    1
     9     9    11    1
    10     8    10    2
    11    11    12    2
    12    10    12    1
