@<TRIPOS>MOLECULE
/home/cewinharhar/GITHUB/reincatalyze/data/processed/docking_pred/2023-Apr-25-2248_maxeplen10_maxtrainstep1000_exh16_gamma099_lrac3e-4_lrcr1e-3/650932a4c96e02f0afcc120cab6b741f416c7ae8_ligand_2.pdbqt
 12 12 0 0 0
SMALL
GASTEIGER

@<TRIPOS>ATOM
      1  C          5.0170    1.7200    0.8180 C.3     1  UNL1        0.1270
      2  C          4.5350    0.9400    1.9720 C.2     1  UNL1        0.3030
      3  O          5.2400   -0.0120    2.4040 O.2     1  UNL1       -0.2520
      4  O          3.3180    1.2210    2.6080 O.3     1  UNL1       -0.4810
      5  H          3.3320    1.7590    3.4640 H       1  UNL1        0.2960
      6  C          6.5280    1.8700    0.8180 C.3     1  UNL1        0.0470
      7  C          7.1320    1.1790   -0.3520 C.2     1  UNL1       -0.0470
      8  C          8.4990    1.2380   -0.5800 C.2     1  UNL1        0.0040
      9  C          6.3820    0.4610   -1.2650 C.2     1  UNL1        0.0040
     10  C          9.0860    0.6170   -1.6590 C.2     1  UNL1        0.0000
     11  C          6.9720   -0.1600   -2.3450 C.2     1  UNL1        0.0000
     12  C          8.3290   -0.0960   -2.5660 C.2     1  UNL1        0.0000
@<TRIPOS>BOND
     1    12    11    2
     2    12    10    1
     3    11     9    1
     4    10     8    2
     5     9     7    2
     6     8     7    1
     7     7     6    1
     8     1     6    1
     9     1     2    1
    10     2     3    2
    11     2     4    1
    12     4     5    1
