@<TRIPOS>MOLECULE
/home/cewinharhar/GITHUB/reincatalyze/data/processed/docking_pred/2023-Apr-25-2248_maxeplen10_maxtrainstep1000_exh16_gamma099_lrac3e-4_lrcr1e-3/650932a4c96e02f0afcc120cab6b741f416c7ae8_ligand_2.pdbqt
 12 12 0 0 0
SMALL
GASTEIGER

@<TRIPOS>ATOM
      1  C          8.2070    1.0160   -1.8180 C.3     1  UNL1        0.1270
      2  C          9.4560    0.2410   -1.7110 C.2     1  UNL1        0.3030
      3  O          9.5300   -0.8820   -2.2800 O.2     1  UNL1       -0.2520
      4  O         10.5690    0.7100   -0.9980 O.3     1  UNL1       -0.4810
      5  H         11.3730    1.0350   -1.5160 H       1  UNL1        0.2960
      6  C          6.9760    0.1280   -1.7900 C.3     1  UNL1        0.0470
      7  C          6.3740    0.0960   -0.4310 C.2     1  UNL1       -0.0470
      8  C          5.6560    1.1810    0.0510 C.2     1  UNL1        0.0040
      9  C          6.4990   -0.9890    0.4170 C.2     1  UNL1        0.0040
     10  C          5.0960    1.1860    1.3070 C.2     1  UNL1        0.0000
     11  C          5.9370   -0.9820    1.6760 C.2     1  UNL1        0.0000
     12  C          5.2270    0.0990    2.1470 C.2     1  UNL1        0.0000
@<TRIPOS>BOND
     1     3     2    2
     2     1     6    1
     3     1     2    1
     4     6     7    1
     5     2     4    1
     6     5     4    1
     7     7     8    2
     8     7     9    1
     9     8    10    1
    10     9    11    2
    11    10    12    2
    12    11    12    1
