MODEL 1
REMARK VINA RESULT:      -6.9      0.000      0.000
REMARK SMILES O=C(O)CCc1ccccc1
REMARK SMILES IDX 4 1 2 2 1 3 3 4 5 6 6 7 7 8 11 9 8 10 10 11 9 12
REMARK H PARENT 3 5
REMARK Flexibility Score: inf
ROOT
ATOM      1  C   UNL     1       8.207   1.016  -1.818  1.00  0.00     0.127 C 
ENDROOT
BRANCH   1   2
ATOM      2  C   UNL     1       9.456   0.241  -1.711  1.00  0.00     0.303 C 
ATOM      3  O   UNL     1       9.530  -0.882  -2.280  1.00  0.00    -0.252 OA
BRANCH   2   4
ATOM      4  O   UNL     1      10.569   0.710  -0.998  1.00  0.00    -0.481 OA
ATOM      5  H   UNL     1      11.373   1.035  -1.516  1.00  0.00     0.296 HD
ENDBRANCH   2   4
ENDBRANCH   1   2
BRANCH   1   6
ATOM      6  C   UNL     1       6.976   0.128  -1.790  1.00  0.00     0.047 C 
BRANCH   6   7
ATOM      7  C   UNL     1       6.374   0.096  -0.431  1.00  0.00    -0.047 A 
ATOM      8  C   UNL     1       5.656   1.181   0.051  1.00  0.00     0.004 A 
ATOM      9  C   UNL     1       6.499  -0.989   0.417  1.00  0.00     0.004 A 
ATOM     10  C   UNL     1       5.096   1.186   1.307  1.00  0.00     0.000 A 
ATOM     11  C   UNL     1       5.937  -0.982   1.676  1.00  0.00     0.000 A 
ATOM     12  C   UNL     1       5.227   0.099   2.147  1.00  0.00     0.000 A 
ENDBRANCH   6   7
ENDBRANCH   1   6
TORSDOF 4
ENDMDL
MODEL 2
REMARK VINA RESULT:      -6.9      0.091      1.423
REMARK SMILES O=C(O)CCc1ccccc1
REMARK SMILES IDX 4 1 2 2 1 3 3 4 5 6 6 7 7 8 11 9 8 10 10 11 9 12
REMARK H PARENT 3 5
REMARK Flexibility Score: inf
ROOT
ATOM      1  C   UNL     1       8.261   1.037  -1.690  1.00  0.00     0.127 C 
ENDROOT
BRANCH   1   2
ATOM      2  C   UNL     1       9.496   0.235  -1.654  1.00  0.00     0.303 C 
ATOM      3  O   UNL     1       9.527  -0.870  -2.261  1.00  0.00    -0.252 OA
BRANCH   2   4
ATOM      4  O   UNL     1      10.643   0.658  -0.967  1.00  0.00    -0.481 OA
ATOM      5  H   UNL     1      10.636   1.570  -0.530  1.00  0.00     0.296 HD
ENDBRANCH   2   4
ENDBRANCH   1   2
BRANCH   1   6
ATOM      6  C   UNL     1       7.014   0.171  -1.696  1.00  0.00     0.047 C 
BRANCH   6   7
ATOM      7  C   UNL     1       6.368   0.160  -0.358  1.00  0.00    -0.047 A 
ATOM      8  C   UNL     1       6.489  -0.941   0.478  1.00  0.00     0.004 A 
ATOM      9  C   UNL     1       5.615   1.218   0.119  1.00  0.00     0.004 A 
ATOM     10  C   UNL     1       5.894  -0.987   1.718  1.00  0.00     0.000 A 
ATOM     11  C   UNL     1       5.020   1.171   1.361  1.00  0.00     0.000 A 
ATOM     12  C   UNL     1       5.144   0.074   2.184  1.00  0.00     0.000 A 
ENDBRANCH   6   7
ENDBRANCH   1   6
TORSDOF 4
ENDMDL
MODEL 3
REMARK VINA RESULT:      -6.9      3.302      4.905
REMARK SMILES O=C(O)CCc1ccccc1
REMARK SMILES IDX 4 1 2 2 1 3 3 4 5 6 6 7 7 8 11 9 8 10 10 11 9 12
REMARK H PARENT 3 5
REMARK Flexibility Score: inf
ROOT
ATOM      1  C   UNL     1       4.991   1.783   0.842  1.00  0.00     0.127 C 
ENDROOT
BRANCH   1   2
ATOM      2  C   UNL     1       4.435   1.036   1.984  1.00  0.00     0.303 C 
ATOM      3  O   UNL     1       5.087   0.067   2.458  1.00  0.00    -0.252 OA
BRANCH   2   4
ATOM      4  O   UNL     1       3.203   1.368   2.566  1.00  0.00    -0.481 OA
ATOM      5  H   UNL     1       3.086   2.294   2.955  1.00  0.00     0.296 HD
ENDBRANCH   2   4
ENDBRANCH   1   2
BRANCH   1   6
ATOM      6  C   UNL     1       6.506   1.874   0.898  1.00  0.00     0.047 C 
BRANCH   6   7
ATOM      7  C   UNL     1       7.123   1.220  -0.285  1.00  0.00    -0.047 A 
ATOM      8  C   UNL     1       6.342   0.528  -1.199  1.00  0.00     0.004 A 
ATOM      9  C   UNL     1       8.483   1.254  -0.534  1.00  0.00     0.004 A 
ATOM     10  C   UNL     1       6.884  -0.096  -2.299  1.00  0.00     0.000 A 
ATOM     11  C   UNL     1       9.025   0.628  -1.636  1.00  0.00     0.000 A 
ATOM     12  C   UNL     1       8.243  -0.058  -2.538  1.00  0.00     0.000 A 
ENDBRANCH   6   7
ENDBRANCH   1   6
TORSDOF 4
ENDMDL
MODEL 4
REMARK VINA RESULT:      -6.8      1.027      1.867
REMARK SMILES O=C(O)CCc1ccccc1
REMARK SMILES IDX 4 1 2 2 1 3 3 4 5 6 6 7 7 8 11 9 8 10 10 11 9 12
REMARK H PARENT 3 5
REMARK Flexibility Score: inf
ROOT
ATOM      1  C   UNL     1       8.330   0.547  -2.103  1.00  0.00     0.127 C 
ENDROOT
BRANCH   1   2
ATOM      2  C   UNL     1       9.382   0.178  -1.139  1.00  0.00     0.303 C 
ATOM      3  O   UNL     1       9.154  -0.741  -0.307  1.00  0.00    -0.252 OA
BRANCH   2   4
ATOM      4  O   UNL     1      10.631   0.815  -1.115  1.00  0.00    -0.481 OA
ATOM      5  H   UNL     1      11.416   0.325  -0.707  1.00  0.00     0.296 HD
ENDBRANCH   2   4
ENDBRANCH   1   2
BRANCH   1   6
ATOM      6  C   UNL     1       7.012  -0.145  -1.807  1.00  0.00     0.047 C 
BRANCH   6   7
ATOM      7  C   UNL     1       6.240   0.598  -0.778  1.00  0.00    -0.047 A 
ATOM      8  C   UNL     1       6.070   0.073   0.495  1.00  0.00     0.004 A 
ATOM      9  C   UNL     1       5.650   1.824  -1.025  1.00  0.00     0.004 A 
ATOM     10  C   UNL     1       5.352   0.732   1.467  1.00  0.00     0.000 A 
ATOM     11  C   UNL     1       4.931   2.482  -0.051  1.00  0.00     0.000 A 
ATOM     12  C   UNL     1       4.765   1.955   1.210  1.00  0.00     0.000 A 
ENDBRANCH   6   7
ENDBRANCH   1   6
TORSDOF 4
ENDMDL
MODEL 5
REMARK VINA RESULT:      -6.8      3.249      4.889
REMARK SMILES O=C(O)CCc1ccccc1
REMARK SMILES IDX 4 1 2 2 1 3 3 4 5 6 6 7 7 8 11 9 8 10 10 11 9 12
REMARK H PARENT 3 5
REMARK Flexibility Score: inf
ROOT
ATOM      1  C   UNL     1       5.017   1.720   0.818  1.00  0.00     0.127 C 
ENDROOT
BRANCH   1   2
ATOM      2  C   UNL     1       4.535   0.940   1.972  1.00  0.00     0.303 C 
ATOM      3  O   UNL     1       5.240  -0.012   2.404  1.00  0.00    -0.252 OA
BRANCH   2   4
ATOM      4  O   UNL     1       3.318   1.221   2.608  1.00  0.00    -0.481 OA
ATOM      5  H   UNL     1       3.332   1.759   3.464  1.00  0.00     0.296 HD
ENDBRANCH   2   4
ENDBRANCH   1   2
BRANCH   1   6
ATOM      6  C   UNL     1       6.528   1.870   0.818  1.00  0.00     0.047 C 
BRANCH   6   7
ATOM      7  C   UNL     1       7.132   1.179  -0.352  1.00  0.00    -0.047 A 
ATOM      8  C   UNL     1       8.499   1.238  -0.580  1.00  0.00     0.004 A 
ATOM      9  C   UNL     1       6.382   0.461  -1.265  1.00  0.00     0.004 A 
ATOM     10  C   UNL     1       9.086   0.617  -1.659  1.00  0.00     0.000 A 
ATOM     11  C   UNL     1       6.972  -0.160  -2.345  1.00  0.00     0.000 A 
ATOM     12  C   UNL     1       8.329  -0.096  -2.566  1.00  0.00     0.000 A 
ENDBRANCH   6   7
ENDBRANCH   1   6
TORSDOF 4
ENDMDL
