@<TRIPOS>MOLECULE
/home/cewinharhar/GITHUB/reincatalyze/data/processed/docking_pred/2023-Apr-25-2248_maxeplen10_maxtrainstep1000_exh16_gamma099_lrac3e-4_lrcr1e-3/650932a4c96e02f0afcc120cab6b741f416c7ae8_ligand_2.pdbqt
 12 12 0 0 0
SMALL
GASTEIGER

@<TRIPOS>ATOM
      1  C          4.9910    1.7830    0.8420 C.3     1  UNL1        0.1270
      2  C          4.4350    1.0360    1.9840 C.2     1  UNL1        0.3030
      3  O          5.0870    0.0670    2.4580 O.2     1  UNL1       -0.2520
      4  O          3.2030    1.3680    2.5660 O.3     1  UNL1       -0.4810
      5  H          3.0860    2.2940    2.9550 H       1  UNL1        0.2960
      6  C          6.5060    1.8740    0.8980 C.3     1  UNL1        0.0470
      7  C          7.1230    1.2200   -0.2850 C.2     1  UNL1       -0.0470
      8  C          6.3420    0.5280   -1.1990 C.2     1  UNL1        0.0040
      9  C          8.4830    1.2540   -0.5340 C.2     1  UNL1        0.0040
     10  C          6.8840   -0.0960   -2.2990 C.2     1  UNL1        0.0000
     11  C          9.0250    0.6280   -1.6360 C.2     1  UNL1        0.0000
     12  C          8.2430   -0.0580   -2.5380 C.2     1  UNL1        0.0000
@<TRIPOS>BOND
     1    12    10    2
     2    12    11    1
     3    10     8    1
     4    11     9    2
     5     8     7    2
     6     9     7    1
     7     7     6    1
     8     1     6    1
     9     1     2    1
    10     2     3    2
    11     2     4    1
    12     4     5    1
