@<TRIPOS>MOLECULE
/home/cewinharhar/GITHUB/reincatalyze/data/processed/docking_pred/2023-Apr-25-2248_maxeplen10_maxtrainstep1000_exh16_gamma099_lrac3e-4_lrcr1e-3/650932a4c96e02f0afcc120cab6b741f416c7ae8_ligand_2.pdbqt
 12 12 0 0 0
SMALL
GASTEIGER

@<TRIPOS>ATOM
      1  C          8.3300    0.5470   -2.1030 C.3     1  UNL1        0.1270
      2  C          9.3820    0.1780   -1.1390 C.2     1  UNL1        0.3030
      3  O          9.1540   -0.7410   -0.3070 O.2     1  UNL1       -0.2520
      4  O         10.6310    0.8150   -1.1150 O.3     1  UNL1       -0.4810
      5  H         11.4160    0.3250   -0.7070 H       1  UNL1        0.2960
      6  C          7.0120   -0.1450   -1.8070 C.3     1  UNL1        0.0470
      7  C          6.2400    0.5980   -0.7780 C.2     1  UNL1       -0.0470
      8  C          6.0700    0.0730    0.4950 C.2     1  UNL1        0.0040
      9  C          5.6500    1.8240   -1.0250 C.2     1  UNL1        0.0040
     10  C          5.3520    0.7320    1.4670 C.2     1  UNL1        0.0000
     11  C          4.9310    2.4820   -0.0510 C.2     1  UNL1        0.0000
     12  C          4.7650    1.9550    1.2100 C.2     1  UNL1        0.0000
@<TRIPOS>BOND
     1     1     6    1
     2     1     2    1
     3     6     7    1
     4     2     4    1
     5     2     3    2
     6     4     5    1
     7     9     7    2
     8     9    11    1
     9     7     8    1
    10    11    12    2
    11     8    10    2
    12    12    10    1
