@<TRIPOS>MOLECULE
/home/cewinharhar/GITHUB/reincatalyze/data/processed/docking_pred/2023-Apr-25-2248_maxeplen10_maxtrainstep1000_exh16_gamma099_lrac3e-4_lrcr1e-3/65610c622cc3bd86a4d466f03d6f61670904542e_ligand_2.pdbqt
 12 12 0 0 0
SMALL
GASTEIGER

@<TRIPOS>ATOM
      1  C          5.5330    2.9090    0.0580 C.3     1  UNL1        0.1270
      2  C          6.2910    3.8940    0.8500 C.2     1  UNL1        0.3030
      3  O          6.9640    4.7750    0.2500 O.2     1  UNL1       -0.2520
      4  O          6.2880    3.8870    2.2520 O.3     1  UNL1       -0.4810
      5  H          7.1650    4.0210    2.7380 H       1  UNL1        0.2960
      6  C          4.9000    1.8380    0.9280 C.3     1  UNL1        0.0470
      7  C          5.7320    0.6060    0.9460 C.2     1  UNL1       -0.0470
      8  C          5.7350   -0.2290    2.0540 C.2     1  UNL1        0.0040
      9  C          6.5410    0.2340   -0.1120 C.2     1  UNL1        0.0040
     10  C          6.5020   -1.3700    2.1060 C.2     1  UNL1        0.0000
     11  C          7.3080   -0.9090   -0.0580 C.2     1  UNL1        0.0000
     12  C          7.3070   -1.7330    1.0450 C.2     1  UNL1        0.0000
@<TRIPOS>BOND
     1     9    11    1
     2     9     7    2
     3    11    12    2
     4     1     2    1
     5     1     6    1
     6     3     2    2
     7     2     4    1
     8     6     7    1
     9     7     8    1
    10    12    10    1
    11     8    10    2
    12     4     5    1
