@<TRIPOS>MOLECULE
/home/cewinharhar/GITHUB/reincatalyze/data/processed/docking_pred/2023-Apr-25-2248_maxeplen10_maxtrainstep1000_exh16_gamma099_lrac3e-4_lrcr1e-3/65610c622cc3bd86a4d466f03d6f61670904542e_ligand_2.pdbqt
 12 12 0 0 0
SMALL
GASTEIGER

@<TRIPOS>ATOM
      1  C          4.9900    1.8170    0.7450 C.3     1  UNL1        0.1270
      2  C          4.4620    1.1220    1.9320 C.2     1  UNL1        0.3030
      3  O          5.1500    0.2070    2.4630 O.2     1  UNL1       -0.2520
      4  O          3.2190    1.4430    2.4960 O.3     1  UNL1       -0.4810
      5  H          2.5430    0.7030    2.6290 H       1  UNL1        0.2960
      6  C          6.5040    1.9220    0.7680 C.3     1  UNL1        0.0470
      7  C          7.1100    1.1130   -0.3220 C.2     1  UNL1       -0.0470
      8  C          8.4590    1.2310   -0.6240 C.2     1  UNL1        0.0040
      9  C          6.3800    0.2240   -1.0890 C.2     1  UNL1        0.0040
     10  C          9.0480    0.5040   -1.6330 C.2     1  UNL1        0.0000
     11  C          6.9710   -0.5040   -2.0990 C.2     1  UNL1        0.0000
     12  C          8.3100   -0.3810   -2.3940 C.2     1  UNL1        0.0000
@<TRIPOS>BOND
     1    12    11    2
     2    12    10    1
     3    11     9    1
     4    10     8    2
     5     9     7    2
     6     8     7    1
     7     7     6    1
     8     1     6    1
     9     1     2    1
    10     2     3    2
    11     2     4    1
    12     4     5    1
