@<TRIPOS>MOLECULE
/home/cewinharhar/GITHUB/reincatalyze/data/processed/docking_pred/2023-Apr-25-2248_maxeplen10_maxtrainstep1000_exh16_gamma099_lrac3e-4_lrcr1e-3/65610c622cc3bd86a4d466f03d6f61670904542e_ligand_2.pdbqt
 12 12 0 0 0
SMALL
GASTEIGER

@<TRIPOS>ATOM
      1  C          8.2830   -0.9710   -1.8100 C.3     1  UNL1        0.1270
      2  C          8.3390   -2.0240   -2.8390 C.2     1  UNL1        0.3030
      3  O          7.2650   -2.4160   -3.3720 O.2     1  UNL1       -0.2520
      4  O          9.5470   -2.6050   -3.2490 O.3     1  UNL1       -0.4810
      5  H          9.8200   -3.4900   -2.8430 H       1  UNL1        0.2960
      6  C          7.5790   -1.4380   -0.5480 C.3     1  UNL1        0.0470
      7  C          6.6720   -0.3850   -0.0230 C.2     1  UNL1       -0.0470
      8  C          6.3320    0.7100   -0.8040 C.2     1  UNL1        0.0040
      9  C          6.1330   -0.4270    1.2500 C.2     1  UNL1        0.0040
     10  C          5.5030    1.7070   -0.3440 C.2     1  UNL1        0.0000
     11  C          5.3030    0.5720    1.7100 C.2     1  UNL1        0.0000
     12  C          4.9710    1.6560    0.9290 C.2     1  UNL1        0.0000
@<TRIPOS>BOND
     1     3     2    2
     2     4     5    1
     3     4     2    1
     4     2     1    1
     5     1     6    1
     6     8    10    1
     7     8     7    2
     8     6     7    1
     9    10    12    2
    10     7     9    1
    11    12    11    1
    12     9    11    2
