@<TRIPOS>MOLECULE
/home/cewinharhar/GITHUB/reincatalyze/data/processed/docking_pred/2023-Apr-25-2248_maxeplen10_maxtrainstep1000_exh16_gamma099_lrac3e-4_lrcr1e-3/65610c622cc3bd86a4d466f03d6f61670904542e_ligand_2.pdbqt
 12 12 0 0 0
SMALL
GASTEIGER

@<TRIPOS>ATOM
      1  C          8.4210   -0.6170   -2.1600 C.3     1  UNL1        0.1270
      2  C          8.4470   -1.8870   -2.9070 C.2     1  UNL1        0.3030
      3  O          9.5550   -2.4570   -3.1060 O.2     1  UNL1       -0.2520
      4  O          7.2820   -2.4860   -3.4050 O.3     1  UNL1       -0.4810
      5  H          6.5930   -2.8250   -2.7460 H       1  UNL1        0.2960
      6  C          7.0410    0.0170   -2.1540 C.3     1  UNL1        0.0470
      7  C          6.4970    0.0960   -0.7740 C.2     1  UNL1       -0.0470
      8  C          5.8560    1.2440   -0.3300 C.2     1  UNL1        0.0040
      9  C          6.6030   -0.9430    0.1330 C.2     1  UNL1        0.0040
     10  C          5.3510    1.3520    0.9450 C.2     1  UNL1        0.0000
     11  C          6.0960   -0.8330    1.4100 C.2     1  UNL1        0.0000
     12  C          5.4630    0.3100    1.8440 C.2     1  UNL1        0.0000
@<TRIPOS>BOND
     1     4     2    1
     2     4     5    1
     3     3     2    2
     4     2     1    1
     5     1     6    1
     6     6     7    1
     7     7     8    2
     8     7     9    1
     9     8    10    1
    10     9    11    2
    11    10    12    2
    12    11    12    1
