MODEL 1
REMARK VINA RESULT:      -7.3      0.000      0.000
REMARK SMILES O=C(O)CCc1ccccc1
REMARK SMILES IDX 4 1 2 2 1 3 3 4 5 6 6 7 7 8 11 9 8 10 10 11 9 12
REMARK H PARENT 3 5
REMARK Flexibility Score: inf
ROOT
ATOM      1  C   UNL     1       8.421  -0.617  -2.160  1.00  0.00     0.127 C 
ENDROOT
BRANCH   1   2
ATOM      2  C   UNL     1       8.447  -1.887  -2.907  1.00  0.00     0.303 C 
ATOM      3  O   UNL     1       9.555  -2.457  -3.106  1.00  0.00    -0.252 OA
BRANCH   2   4
ATOM      4  O   UNL     1       7.282  -2.486  -3.405  1.00  0.00    -0.481 OA
ATOM      5  H   UNL     1       6.593  -2.825  -2.746  1.00  0.00     0.296 HD
ENDBRANCH   2   4
ENDBRANCH   1   2
BRANCH   1   6
ATOM      6  C   UNL     1       7.041   0.017  -2.154  1.00  0.00     0.047 C 
BRANCH   6   7
ATOM      7  C   UNL     1       6.497   0.096  -0.774  1.00  0.00    -0.047 A 
ATOM      8  C   UNL     1       5.856   1.244  -0.330  1.00  0.00     0.004 A 
ATOM      9  C   UNL     1       6.603  -0.943   0.133  1.00  0.00     0.004 A 
ATOM     10  C   UNL     1       5.351   1.352   0.945  1.00  0.00     0.000 A 
ATOM     11  C   UNL     1       6.096  -0.833   1.410  1.00  0.00     0.000 A 
ATOM     12  C   UNL     1       5.463   0.310   1.844  1.00  0.00     0.000 A 
ENDBRANCH   6   7
ENDBRANCH   1   6
TORSDOF 4
ENDMDL
MODEL 2
REMARK VINA RESULT:      -7.3      0.123      1.725
REMARK SMILES O=C(O)CCc1ccccc1
REMARK SMILES IDX 4 1 2 2 1 3 3 4 5 6 6 7 7 8 11 9 8 10 10 11 9 12
REMARK H PARENT 3 5
REMARK Flexibility Score: inf
ROOT
ATOM      1  C   UNL     1       8.391  -0.723  -2.033  1.00  0.00     0.127 C 
ENDROOT
BRANCH   1   2
ATOM      2  C   UNL     1       8.391  -1.938  -2.866  1.00  0.00     0.303 C 
ATOM      3  O   UNL     1       7.289  -2.422  -3.242  1.00  0.00    -0.252 OA
BRANCH   2   4
ATOM      4  O   UNL     1       9.576  -2.577  -3.258  1.00  0.00    -0.481 OA
ATOM      5  H   UNL     1       9.522  -3.525  -3.607  1.00  0.00     0.296 HD
ENDBRANCH   2   4
ENDBRANCH   1   2
BRANCH   1   6
ATOM      6  C   UNL     1       7.065   0.013  -2.091  1.00  0.00     0.047 C 
BRANCH   6   7
ATOM      7  C   UNL     1       6.473   0.152  -0.735  1.00  0.00    -0.047 A 
ATOM      8  C   UNL     1       6.586  -0.871   0.195  1.00  0.00     0.004 A 
ATOM      9  C   UNL     1       5.782   1.280  -0.332  1.00  0.00     0.004 A 
ATOM     10  C   UNL     1       6.040  -0.778   1.455  1.00  0.00     0.000 A 
ATOM     11  C   UNL     1       5.235   1.372   0.930  1.00  0.00     0.000 A 
ATOM     12  C   UNL     1       5.351   0.352   1.847  1.00  0.00     0.000 A 
ENDBRANCH   6   7
ENDBRANCH   1   6
TORSDOF 4
ENDMDL
MODEL 3
REMARK VINA RESULT:      -7.1      0.648      1.551
REMARK SMILES O=C(O)CCc1ccccc1
REMARK SMILES IDX 4 1 2 2 1 3 3 4 5 6 6 7 7 8 11 9 8 10 10 11 9 12
REMARK H PARENT 3 5
REMARK Flexibility Score: inf
ROOT
ATOM      1  C   UNL     1       8.283  -0.971  -1.810  1.00  0.00     0.127 C 
ENDROOT
BRANCH   1   2
ATOM      2  C   UNL     1       8.339  -2.024  -2.839  1.00  0.00     0.303 C 
ATOM      3  O   UNL     1       7.265  -2.416  -3.372  1.00  0.00    -0.252 OA
BRANCH   2   4
ATOM      4  O   UNL     1       9.547  -2.605  -3.249  1.00  0.00    -0.481 OA
ATOM      5  H   UNL     1       9.820  -3.490  -2.843  1.00  0.00     0.296 HD
ENDBRANCH   2   4
ENDBRANCH   1   2
BRANCH   1   6
ATOM      6  C   UNL     1       7.579  -1.438  -0.548  1.00  0.00     0.047 C 
BRANCH   6   7
ATOM      7  C   UNL     1       6.672  -0.385  -0.023  1.00  0.00    -0.047 A 
ATOM      8  C   UNL     1       6.332   0.710  -0.804  1.00  0.00     0.004 A 
ATOM      9  C   UNL     1       6.133  -0.427   1.250  1.00  0.00     0.004 A 
ATOM     10  C   UNL     1       5.503   1.707  -0.344  1.00  0.00     0.000 A 
ATOM     11  C   UNL     1       5.303   0.572   1.710  1.00  0.00     0.000 A 
ATOM     12  C   UNL     1       4.971   1.656   0.929  1.00  0.00     0.000 A 
ENDBRANCH   6   7
ENDBRANCH   1   6
TORSDOF 4
ENDMDL
MODEL 4
REMARK VINA RESULT:      -6.8      3.384      5.076
REMARK SMILES O=C(O)CCc1ccccc1
REMARK SMILES IDX 4 1 2 2 1 3 3 4 5 6 6 7 7 8 11 9 8 10 10 11 9 12
REMARK H PARENT 3 5
REMARK Flexibility Score: inf
ROOT
ATOM      1  C   UNL     1       4.990   1.817   0.745  1.00  0.00     0.127 C 
ENDROOT
BRANCH   1   2
ATOM      2  C   UNL     1       4.462   1.122   1.932  1.00  0.00     0.303 C 
ATOM      3  O   UNL     1       5.150   0.207   2.463  1.00  0.00    -0.252 OA
BRANCH   2   4
ATOM      4  O   UNL     1       3.219   1.443   2.496  1.00  0.00    -0.481 OA
ATOM      5  H   UNL     1       2.543   0.703   2.629  1.00  0.00     0.296 HD
ENDBRANCH   2   4
ENDBRANCH   1   2
BRANCH   1   6
ATOM      6  C   UNL     1       6.504   1.922   0.768  1.00  0.00     0.047 C 
BRANCH   6   7
ATOM      7  C   UNL     1       7.110   1.113  -0.322  1.00  0.00    -0.047 A 
ATOM      8  C   UNL     1       8.459   1.231  -0.624  1.00  0.00     0.004 A 
ATOM      9  C   UNL     1       6.380   0.224  -1.089  1.00  0.00     0.004 A 
ATOM     10  C   UNL     1       9.048   0.504  -1.633  1.00  0.00     0.000 A 
ATOM     11  C   UNL     1       6.971  -0.504  -2.099  1.00  0.00     0.000 A 
ATOM     12  C   UNL     1       8.310  -0.381  -2.394  1.00  0.00     0.000 A 
ENDBRANCH   6   7
ENDBRANCH   1   6
TORSDOF 4
ENDMDL
MODEL 5
REMARK VINA RESULT:      -6.7      3.829      4.993
REMARK SMILES O=C(O)CCc1ccccc1
REMARK SMILES IDX 4 1 2 2 1 3 3 4 5 6 6 7 7 8 11 9 8 10 10 11 9 12
REMARK H PARENT 3 5
REMARK Flexibility Score: inf
ROOT
ATOM      1  C   UNL     1       5.533   2.909   0.058  1.00  0.00     0.127 C 
ENDROOT
BRANCH   1   2
ATOM      2  C   UNL     1       6.291   3.894   0.850  1.00  0.00     0.303 C 
ATOM      3  O   UNL     1       6.964   4.775   0.250  1.00  0.00    -0.252 OA
BRANCH   2   4
ATOM      4  O   UNL     1       6.288   3.887   2.252  1.00  0.00    -0.481 OA
ATOM      5  H   UNL     1       7.165   4.021   2.738  1.00  0.00     0.296 HD
ENDBRANCH   2   4
ENDBRANCH   1   2
BRANCH   1   6
ATOM      6  C   UNL     1       4.900   1.838   0.928  1.00  0.00     0.047 C 
BRANCH   6   7
ATOM      7  C   UNL     1       5.732   0.606   0.946  1.00  0.00    -0.047 A 
ATOM      8  C   UNL     1       5.735  -0.229   2.054  1.00  0.00     0.004 A 
ATOM      9  C   UNL     1       6.541   0.234  -0.112  1.00  0.00     0.004 A 
ATOM     10  C   UNL     1       6.502  -1.370   2.106  1.00  0.00     0.000 A 
ATOM     11  C   UNL     1       7.308  -0.909  -0.058  1.00  0.00     0.000 A 
ATOM     12  C   UNL     1       7.307  -1.733   1.045  1.00  0.00     0.000 A 
ENDBRANCH   6   7
ENDBRANCH   1   6
TORSDOF 4
ENDMDL
