@<TRIPOS>MOLECULE
/home/cewinharhar/GITHUB/reincatalyze/data/processed/docking_pred/2023-Apr-25-2248_maxeplen10_maxtrainstep1000_exh16_gamma099_lrac3e-4_lrcr1e-3/65610c622cc3bd86a4d466f03d6f61670904542e_ligand_2.pdbqt
 12 12 0 0 0
SMALL
GASTEIGER

@<TRIPOS>ATOM
      1  C          8.3910   -0.7230   -2.0330 C.3     1  UNL1        0.1270
      2  C          8.3910   -1.9380   -2.8660 C.2     1  UNL1        0.3030
      3  O          7.2890   -2.4220   -3.2420 O.2     1  UNL1       -0.2520
      4  O          9.5760   -2.5770   -3.2580 O.3     1  UNL1       -0.4810
      5  H          9.5220   -3.5250   -3.6070 H       1  UNL1        0.2960
      6  C          7.0650    0.0130   -2.0910 C.3     1  UNL1        0.0470
      7  C          6.4730    0.1520   -0.7350 C.2     1  UNL1       -0.0470
      8  C          6.5860   -0.8710    0.1950 C.2     1  UNL1        0.0040
      9  C          5.7820    1.2800   -0.3320 C.2     1  UNL1        0.0040
     10  C          6.0400   -0.7780    1.4550 C.2     1  UNL1        0.0000
     11  C          5.2350    1.3720    0.9300 C.2     1  UNL1        0.0000
     12  C          5.3510    0.3520    1.8470 C.2     1  UNL1        0.0000
@<TRIPOS>BOND
     1     5     4    1
     2     4     2    1
     3     3     2    2
     4     2     1    1
     5     6     1    1
     6     6     7    1
     7     7     9    2
     8     7     8    1
     9     9    11    1
    10     8    10    2
    11    11    12    2
    12    10    12    1
