@<TRIPOS>MOLECULE
/home/cewinharhar/GITHUB/reincatalyze/data/processed/docking_pred/2023-Apr-25-2248_maxeplen10_maxtrainstep1000_exh16_gamma099_lrac3e-4_lrcr1e-3/661305b30cebe31e235170a50c1781f21e405ac9_ligand_2.pdbqt
 12 12 0 0 0
SMALL
GASTEIGER

@<TRIPOS>ATOM
      1  C          8.2980   -1.7350    1.1980 C.3     1  UNL1        0.1270
      2  C          8.6930   -2.9660    0.4890 C.2     1  UNL1        0.3030
      3  O          9.4360   -3.7990    1.0760 O.2     1  UNL1       -0.2520
      4  O          8.2680   -3.2450   -0.8180 O.3     1  UNL1       -0.4810
      5  H          7.2840   -3.1620   -1.0340 H       1  UNL1        0.2960
      6  C          6.7990   -1.6570    1.4200 C.3     1  UNL1        0.0470
      7  C          6.2460   -0.3850    0.8840 C.2     1  UNL1       -0.0470
      8  C          6.5150    0.0090   -0.4190 C.2     1  UNL1        0.0040
      9  C          5.4590    0.4650    1.6380 C.2     1  UNL1        0.0040
     10  C          6.0270    1.1860   -0.9410 C.2     1  UNL1        0.0000
     11  C          4.9710    1.6430    1.1140 C.2     1  UNL1        0.0000
     12  C          5.2430    2.0280   -0.1790 C.2     1  UNL1        0.0000
@<TRIPOS>BOND
     1     5     4    1
     2    10     8    1
     3    10    12    2
     4     4     2    1
     5     8     7    2
     6    12    11    1
     7     2     3    2
     8     2     1    1
     9     7     6    1
    10     7     9    1
    11    11     9    2
    12     1     6    1
