@<TRIPOS>MOLECULE
/home/cewinharhar/GITHUB/reincatalyze/data/processed/docking_pred/2023-Apr-25-2248_maxeplen10_maxtrainstep1000_exh16_gamma099_lrac3e-4_lrcr1e-3/661305b30cebe31e235170a50c1781f21e405ac9_ligand_2.pdbqt
 12 12 0 0 0
SMALL
GASTEIGER

@<TRIPOS>ATOM
      1  C          8.3980   -0.6370   -2.1270 C.3     1  UNL1        0.1270
      2  C          8.4400   -1.8910   -2.9000 C.2     1  UNL1        0.3030
      3  O          9.5510   -2.4570   -3.0870 O.2     1  UNL1       -0.2520
      4  O          7.2850   -2.4790   -3.4350 O.3     1  UNL1       -0.4810
      5  H          7.3860   -3.2940   -4.0250 H       1  UNL1        0.2960
      6  C          7.0160   -0.0080   -2.1290 C.3     1  UNL1        0.0470
      7  C          6.4770    0.0990   -0.7480 C.2     1  UNL1       -0.0470
      8  C          6.5980   -0.9580    0.1420 C.2     1  UNL1        0.0040
      9  C          5.8290    1.2290   -0.2830 C.2     1  UNL1        0.0040
     10  C          6.1010   -0.8940    1.4240 C.2     1  UNL1        0.0000
     11  C          5.3320    1.2910    1.0010 C.2     1  UNL1        0.0000
     12  C          5.4550    0.2380    1.8780 C.2     1  UNL1        0.0000
@<TRIPOS>BOND
     1     5     4    1
     2     4     2    1
     3     3     2    2
     4     2     1    1
     5     6     1    1
     6     6     7    1
     7     7     9    2
     8     7     8    1
     9     9    11    1
    10     8    10    2
    11    11    12    2
    12    10    12    1
