@<TRIPOS>MOLECULE
/home/cewinharhar/GITHUB/reincatalyze/data/processed/docking_pred/2023-Apr-25-2248_maxeplen10_maxtrainstep1000_exh16_gamma099_lrac3e-4_lrcr1e-3/661305b30cebe31e235170a50c1781f21e405ac9_ligand_2.pdbqt
 12 12 0 0 0
SMALL
GASTEIGER

@<TRIPOS>ATOM
      1  C          5.0180    1.7890    0.7360 C.3     1  UNL1        0.1270
      2  C          4.4740    1.1130    1.9280 C.2     1  UNL1        0.3030
      3  O          5.1490    0.1970    2.4730 O.2     1  UNL1       -0.2520
      4  O          3.2300    1.4530    2.4790 O.3     1  UNL1       -0.4810
      5  H          3.1580    1.5560    3.4820 H       1  UNL1        0.2960
      6  C          6.5330    1.8720    0.7650 C.3     1  UNL1        0.0470
      7  C          7.1320    1.0590   -0.3250 C.2     1  UNL1       -0.0470
      8  C          8.4670    1.2120   -0.6710 C.2     1  UNL1        0.0040
      9  C          6.4080    0.1310   -1.0510 C.2     1  UNL1        0.0040
     10  C          9.0480    0.4820   -1.6820 C.2     1  UNL1        0.0000
     11  C          6.9920   -0.5990   -2.0640 C.2     1  UNL1        0.0000
     12  C          8.3170   -0.4410   -2.4010 C.2     1  UNL1        0.0000
@<TRIPOS>BOND
     1    12    11    2
     2    12    10    1
     3    11     9    1
     4    10     8    2
     5     9     7    2
     6     8     7    1
     7     7     6    1
     8     1     6    1
     9     1     2    1
    10     2     3    2
    11     2     4    1
    12     4     5    1
