@<TRIPOS>MOLECULE
/home/cewinharhar/GITHUB/reincatalyze/data/processed/docking_pred/2023-Apr-25-2248_maxeplen10_maxtrainstep1000_exh16_gamma099_lrac3e-4_lrcr1e-3/661305b30cebe31e235170a50c1781f21e405ac9_ligand_2.pdbqt
 12 12 0 0 0
SMALL
GASTEIGER

@<TRIPOS>ATOM
      1  C          8.3470   -0.9670   -1.8930 C.3     1  UNL1        0.1270
      2  C          8.4050   -2.0540   -2.8870 C.2     1  UNL1        0.3030
      3  O          9.5150   -2.5990   -3.1340 O.2     1  UNL1       -0.2520
      4  O          7.2660   -2.5060   -3.5680 O.3     1  UNL1       -0.4810
      5  H          7.0510   -3.4940   -3.5480 H       1  UNL1        0.2960
      6  C          7.7310   -1.4210   -0.5820 C.3     1  UNL1        0.0470
      7  C          6.7930   -0.3970   -0.0520 C.2     1  UNL1       -0.0470
      8  C          6.2860   -0.5010    1.2350 C.2     1  UNL1        0.0040
      9  C          6.3720    0.6890   -0.7970 C.2     1  UNL1        0.0040
     10  C          5.4080    0.4250    1.7520 C.2     1  UNL1        0.0000
     11  C          5.4930    1.6160   -0.2780 C.2     1  UNL1        0.0000
     12  C          4.9930    1.5050    0.9990 C.2     1  UNL1        0.0000
@<TRIPOS>BOND
     1     4     5    1
     2     4     2    1
     3     3     2    2
     4     2     1    1
     5     1     6    1
     6     9    11    1
     7     9     7    2
     8     6     7    1
     9    11    12    2
    10     7     8    1
    11    12    10    1
    12     8    10    2
