MODEL 1
REMARK VINA RESULT:      -7.3      0.000      0.000
REMARK SMILES O=C(O)CCc1ccccc1
REMARK SMILES IDX 4 1 2 2 1 3 3 4 5 6 6 7 7 8 11 9 8 10 10 11 9 12
REMARK H PARENT 3 5
REMARK Flexibility Score: inf
ROOT
ATOM      1  C   UNL     1       8.398  -0.637  -2.127  1.00  0.00     0.127 C 
ENDROOT
BRANCH   1   2
ATOM      2  C   UNL     1       8.440  -1.891  -2.900  1.00  0.00     0.303 C 
ATOM      3  O   UNL     1       9.551  -2.457  -3.087  1.00  0.00    -0.252 OA
BRANCH   2   4
ATOM      4  O   UNL     1       7.285  -2.479  -3.435  1.00  0.00    -0.481 OA
ATOM      5  H   UNL     1       7.386  -3.294  -4.025  1.00  0.00     0.296 HD
ENDBRANCH   2   4
ENDBRANCH   1   2
BRANCH   1   6
ATOM      6  C   UNL     1       7.016  -0.008  -2.129  1.00  0.00     0.047 C 
BRANCH   6   7
ATOM      7  C   UNL     1       6.477   0.099  -0.748  1.00  0.00    -0.047 A 
ATOM      8  C   UNL     1       6.598  -0.958   0.142  1.00  0.00     0.004 A 
ATOM      9  C   UNL     1       5.829   1.229  -0.283  1.00  0.00     0.004 A 
ATOM     10  C   UNL     1       6.101  -0.894   1.424  1.00  0.00     0.000 A 
ATOM     11  C   UNL     1       5.332   1.291   1.001  1.00  0.00     0.000 A 
ATOM     12  C   UNL     1       5.455   0.238   1.878  1.00  0.00     0.000 A 
ENDBRANCH   6   7
ENDBRANCH   1   6
TORSDOF 4
ENDMDL
MODEL 2
REMARK VINA RESULT:      -7.2      0.092      1.723
REMARK SMILES O=C(O)CCc1ccccc1
REMARK SMILES IDX 4 1 2 2 1 3 3 4 5 6 6 7 7 8 11 9 8 10 10 11 9 12
REMARK H PARENT 3 5
REMARK Flexibility Score: inf
ROOT
ATOM      1  C   UNL     1       8.388  -0.624  -2.165  1.00  0.00     0.127 C 
ENDROOT
BRANCH   1   2
ATOM      2  C   UNL     1       8.396  -1.899  -2.904  1.00  0.00     0.303 C 
ATOM      3  O   UNL     1       7.297  -2.416  -3.244  1.00  0.00    -0.252 OA
BRANCH   2   4
ATOM      4  O   UNL     1       9.585  -2.560  -3.243  1.00  0.00    -0.481 OA
ATOM      5  H   UNL     1      10.424  -2.342  -2.723  1.00  0.00     0.296 HD
ENDBRANCH   2   4
ENDBRANCH   1   2
BRANCH   1   6
ATOM      6  C   UNL     1       7.014   0.022  -2.150  1.00  0.00     0.047 C 
BRANCH   6   7
ATOM      7  C   UNL     1       6.472   0.087  -0.767  1.00  0.00    -0.047 A 
ATOM      8  C   UNL     1       5.797   1.216  -0.324  1.00  0.00     0.004 A 
ATOM      9  C   UNL     1       6.613  -0.946   0.141  1.00  0.00     0.004 A 
ATOM     10  C   UNL     1       5.293   1.311   0.953  1.00  0.00     0.000 A 
ATOM     11  C   UNL     1       6.107  -0.849   1.420  1.00  0.00     0.000 A 
ATOM     12  C   UNL     1       5.440   0.275   1.852  1.00  0.00     0.000 A 
ENDBRANCH   6   7
ENDBRANCH   1   6
TORSDOF 4
ENDMDL
MODEL 3
REMARK VINA RESULT:      -7.1      0.630      1.168
REMARK SMILES O=C(O)CCc1ccccc1
REMARK SMILES IDX 4 1 2 2 1 3 3 4 5 6 6 7 7 8 11 9 8 10 10 11 9 12
REMARK H PARENT 3 5
REMARK Flexibility Score: inf
ROOT
ATOM      1  C   UNL     1       8.347  -0.967  -1.893  1.00  0.00     0.127 C 
ENDROOT
BRANCH   1   2
ATOM      2  C   UNL     1       8.405  -2.054  -2.887  1.00  0.00     0.303 C 
ATOM      3  O   UNL     1       9.515  -2.599  -3.134  1.00  0.00    -0.252 OA
BRANCH   2   4
ATOM      4  O   UNL     1       7.266  -2.506  -3.568  1.00  0.00    -0.481 OA
ATOM      5  H   UNL     1       7.051  -3.494  -3.548  1.00  0.00     0.296 HD
ENDBRANCH   2   4
ENDBRANCH   1   2
BRANCH   1   6
ATOM      6  C   UNL     1       7.731  -1.421  -0.582  1.00  0.00     0.047 C 
BRANCH   6   7
ATOM      7  C   UNL     1       6.793  -0.397  -0.052  1.00  0.00    -0.047 A 
ATOM      8  C   UNL     1       6.286  -0.501   1.235  1.00  0.00     0.004 A 
ATOM      9  C   UNL     1       6.372   0.689  -0.797  1.00  0.00     0.004 A 
ATOM     10  C   UNL     1       5.408   0.425   1.752  1.00  0.00     0.000 A 
ATOM     11  C   UNL     1       5.493   1.616  -0.278  1.00  0.00     0.000 A 
ATOM     12  C   UNL     1       4.993   1.505   0.999  1.00  0.00     0.000 A 
ENDBRANCH   6   7
ENDBRANCH   1   6
TORSDOF 4
ENDMDL
MODEL 4
REMARK VINA RESULT:      -6.8      3.392      5.093
REMARK SMILES O=C(O)CCc1ccccc1
REMARK SMILES IDX 4 1 2 2 1 3 3 4 5 6 6 7 7 8 11 9 8 10 10 11 9 12
REMARK H PARENT 3 5
REMARK Flexibility Score: inf
ROOT
ATOM      1  C   UNL     1       5.018   1.789   0.736  1.00  0.00     0.127 C 
ENDROOT
BRANCH   1   2
ATOM      2  C   UNL     1       4.474   1.113   1.928  1.00  0.00     0.303 C 
ATOM      3  O   UNL     1       5.149   0.197   2.473  1.00  0.00    -0.252 OA
BRANCH   2   4
ATOM      4  O   UNL     1       3.230   1.453   2.479  1.00  0.00    -0.481 OA
ATOM      5  H   UNL     1       3.158   1.556   3.482  1.00  0.00     0.296 HD
ENDBRANCH   2   4
ENDBRANCH   1   2
BRANCH   1   6
ATOM      6  C   UNL     1       6.533   1.872   0.765  1.00  0.00     0.047 C 
BRANCH   6   7
ATOM      7  C   UNL     1       7.132   1.059  -0.325  1.00  0.00    -0.047 A 
ATOM      8  C   UNL     1       8.467   1.212  -0.671  1.00  0.00     0.004 A 
ATOM      9  C   UNL     1       6.408   0.131  -1.051  1.00  0.00     0.004 A 
ATOM     10  C   UNL     1       9.048   0.482  -1.682  1.00  0.00     0.000 A 
ATOM     11  C   UNL     1       6.992  -0.599  -2.064  1.00  0.00     0.000 A 
ATOM     12  C   UNL     1       8.317  -0.441  -2.401  1.00  0.00     0.000 A 
ENDBRANCH   6   7
ENDBRANCH   1   6
TORSDOF 4
ENDMDL
MODEL 5
REMARK VINA RESULT:      -6.6      1.984      2.926
REMARK SMILES O=C(O)CCc1ccccc1
REMARK SMILES IDX 4 1 2 2 1 3 3 4 5 6 6 7 7 8 11 9 8 10 10 11 9 12
REMARK H PARENT 3 5
REMARK Flexibility Score: inf
ROOT
ATOM      1  C   UNL     1       8.298  -1.735   1.198  1.00  0.00     0.127 C 
ENDROOT
BRANCH   1   2
ATOM      2  C   UNL     1       8.693  -2.966   0.489  1.00  0.00     0.303 C 
ATOM      3  O   UNL     1       9.436  -3.799   1.076  1.00  0.00    -0.252 OA
BRANCH   2   4
ATOM      4  O   UNL     1       8.268  -3.245  -0.818  1.00  0.00    -0.481 OA
ATOM      5  H   UNL     1       7.284  -3.162  -1.034  1.00  0.00     0.296 HD
ENDBRANCH   2   4
ENDBRANCH   1   2
BRANCH   1   6
ATOM      6  C   UNL     1       6.799  -1.657   1.420  1.00  0.00     0.047 C 
BRANCH   6   7
ATOM      7  C   UNL     1       6.246  -0.385   0.884  1.00  0.00    -0.047 A 
ATOM      8  C   UNL     1       6.515   0.009  -0.419  1.00  0.00     0.004 A 
ATOM      9  C   UNL     1       5.459   0.465   1.638  1.00  0.00     0.004 A 
ATOM     10  C   UNL     1       6.027   1.186  -0.941  1.00  0.00     0.000 A 
ATOM     11  C   UNL     1       4.971   1.643   1.114  1.00  0.00     0.000 A 
ATOM     12  C   UNL     1       5.243   2.028  -0.179  1.00  0.00     0.000 A 
ENDBRANCH   6   7
ENDBRANCH   1   6
TORSDOF 4
ENDMDL
