@<TRIPOS>MOLECULE
/home/cewinharhar/GITHUB/reincatalyze/data/processed/docking_pred/2023-Apr-25-2248_maxeplen10_maxtrainstep1000_exh16_gamma099_lrac3e-4_lrcr1e-3/67714d3181cdcfbe83529be90e704c7fe5693ba3_ligand_2.pdbqt
 12 12 0 0 0
SMALL
GASTEIGER

@<TRIPOS>ATOM
      1  C          8.3850   -0.6050   -2.2120 C.3     1  UNL1        0.1270
      2  C          8.4300   -1.8980   -2.9190 C.2     1  UNL1        0.3030
      3  O          9.5390   -2.4810   -3.0570 O.2     1  UNL1       -0.2520
      4  O          7.2790   -2.5040   -3.4430 O.3     1  UNL1       -0.4810
      5  H          6.8810   -2.1300   -4.2930 H       1  UNL1        0.2960
      6  C          6.9860   -0.0160   -2.1830 C.3     1  UNL1        0.0470
      7  C          6.4800    0.0860   -0.7890 C.2     1  UNL1       -0.0470
      8  C          6.6260   -0.9730    0.0960 C.2     1  UNL1        0.0040
      9  C          5.8390    1.2110   -0.3060 C.2     1  UNL1        0.0040
     10  C          6.1590   -0.9140    1.3890 C.2     1  UNL1        0.0000
     11  C          5.3710    1.2690    0.9900 C.2     1  UNL1        0.0000
     12  C          5.5190    0.2140    1.8610 C.2     1  UNL1        0.0000
@<TRIPOS>BOND
     1     5     4    1
     2     4     2    1
     3     3     2    2
     4     2     1    1
     5     1     6    1
     6     6     7    1
     7     7     9    2
     8     7     8    1
     9     9    11    1
    10     8    10    2
    11    11    12    2
    12    10    12    1
