@<TRIPOS>MOLECULE
/home/cewinharhar/GITHUB/reincatalyze/data/processed/docking_pred/2023-Apr-25-2248_maxeplen10_maxtrainstep1000_exh16_gamma099_lrac3e-4_lrcr1e-3/67714d3181cdcfbe83529be90e704c7fe5693ba3_ligand_2.pdbqt
 12 12 0 0 0
SMALL
GASTEIGER

@<TRIPOS>ATOM
      1  C          5.0120    1.7740    0.7400 C.3     1  UNL1        0.1270
      2  C          4.4680    1.1070    1.9360 C.2     1  UNL1        0.3030
      3  O          5.1430    0.1950    2.4890 O.2     1  UNL1       -0.2520
      4  O          3.2250    1.4520    2.4850 O.3     1  UNL1       -0.4810
      5  H          2.6570    0.7210    2.8930 H       1  UNL1        0.2960
      6  C          6.5260    1.8860    0.7840 C.3     1  UNL1        0.0470
      7  C          7.1490    1.1060   -0.3170 C.2     1  UNL1       -0.0470
      8  C          6.4020    0.1940   -1.0490 C.2     1  UNL1        0.0040
      9  C          8.4820    1.2320   -0.6620 C.2     1  UNL1        0.0040
     10  C          6.9530   -0.5510   -2.0670 C.2     1  UNL1        0.0000
     11  C          9.0320    0.4850   -1.6820 C.2     1  UNL1        0.0000
     12  C          8.2850   -0.4190   -2.4030 C.2     1  UNL1        0.0000
@<TRIPOS>BOND
     1    12    10    2
     2    12    11    1
     3    10     8    1
     4    11     9    2
     5     8     7    2
     6     9     7    1
     7     7     6    1
     8     1     6    1
     9     1     2    1
    10     2     4    1
    11     2     3    2
    12     4     5    1
