MODEL 1
REMARK VINA RESULT:      -7.3      0.000      0.000
REMARK SMILES O=C(O)CCc1ccccc1
REMARK SMILES IDX 4 1 2 2 1 3 3 4 5 6 6 7 7 8 11 9 8 10 10 11 9 12
REMARK H PARENT 3 5
REMARK Flexibility Score: inf
ROOT
ATOM      1  C   UNL     1       8.404  -0.652  -2.137  1.00  0.00     0.127 C 
ENDROOT
BRANCH   1   2
ATOM      2  C   UNL     1       8.427  -1.918  -2.889  1.00  0.00     0.303 C 
ATOM      3  O   UNL     1       9.525  -2.519  -3.045  1.00  0.00    -0.252 OA
BRANCH   2   4
ATOM      4  O   UNL     1       7.267  -2.482  -3.440  1.00  0.00    -0.481 OA
ATOM      5  H   UNL     1       6.392  -1.986  -3.336  1.00  0.00     0.296 HD
ENDBRANCH   2   4
ENDBRANCH   1   2
BRANCH   1   6
ATOM      6  C   UNL     1       7.023  -0.021  -2.116  1.00  0.00     0.047 C 
BRANCH   6   7
ATOM      7  C   UNL     1       6.483   0.032  -0.732  1.00  0.00    -0.047 A 
ATOM      8  C   UNL     1       5.830   1.166  -0.271  1.00  0.00     0.004 A 
ATOM      9  C   UNL     1       6.605  -1.017   0.160  1.00  0.00     0.004 A 
ATOM     10  C   UNL     1       5.328   1.251   1.007  1.00  0.00     0.000 A 
ATOM     11  C   UNL     1       6.101  -0.931   1.440  1.00  0.00     0.000 A 
ATOM     12  C   UNL     1       5.456   0.198   1.891  1.00  0.00     0.000 A 
ENDBRANCH   6   7
ENDBRANCH   1   6
TORSDOF 4
ENDMDL
MODEL 2
REMARK VINA RESULT:      -7.3      0.066      1.422
REMARK SMILES O=C(O)CCc1ccccc1
REMARK SMILES IDX 4 1 2 2 1 3 3 4 5 6 6 7 7 8 11 9 8 10 10 11 9 12
REMARK H PARENT 3 5
REMARK Flexibility Score: inf
ROOT
ATOM      1  C   UNL     1       8.385  -0.605  -2.212  1.00  0.00     0.127 C 
ENDROOT
BRANCH   1   2
ATOM      2  C   UNL     1       8.430  -1.898  -2.919  1.00  0.00     0.303 C 
ATOM      3  O   UNL     1       9.539  -2.481  -3.057  1.00  0.00    -0.252 OA
BRANCH   2   4
ATOM      4  O   UNL     1       7.279  -2.504  -3.443  1.00  0.00    -0.481 OA
ATOM      5  H   UNL     1       6.881  -2.130  -4.293  1.00  0.00     0.296 HD
ENDBRANCH   2   4
ENDBRANCH   1   2
BRANCH   1   6
ATOM      6  C   UNL     1       6.986  -0.016  -2.183  1.00  0.00     0.047 C 
BRANCH   6   7
ATOM      7  C   UNL     1       6.480   0.086  -0.789  1.00  0.00    -0.047 A 
ATOM      8  C   UNL     1       6.626  -0.973   0.096  1.00  0.00     0.004 A 
ATOM      9  C   UNL     1       5.839   1.211  -0.306  1.00  0.00     0.004 A 
ATOM     10  C   UNL     1       6.159  -0.914   1.389  1.00  0.00     0.000 A 
ATOM     11  C   UNL     1       5.371   1.269   0.990  1.00  0.00     0.000 A 
ATOM     12  C   UNL     1       5.519   0.214   1.861  1.00  0.00     0.000 A 
ENDBRANCH   6   7
ENDBRANCH   1   6
TORSDOF 4
ENDMDL
MODEL 3
REMARK VINA RESULT:      -6.8      3.403      5.095
REMARK SMILES O=C(O)CCc1ccccc1
REMARK SMILES IDX 4 1 2 2 1 3 3 4 5 6 6 7 7 8 11 9 8 10 10 11 9 12
REMARK H PARENT 3 5
REMARK Flexibility Score: inf
ROOT
ATOM      1  C   UNL     1       5.012   1.774   0.740  1.00  0.00     0.127 C 
ENDROOT
BRANCH   1   2
ATOM      2  C   UNL     1       4.468   1.107   1.936  1.00  0.00     0.303 C 
ATOM      3  O   UNL     1       5.143   0.195   2.489  1.00  0.00    -0.252 OA
BRANCH   2   4
ATOM      4  O   UNL     1       3.225   1.452   2.485  1.00  0.00    -0.481 OA
ATOM      5  H   UNL     1       2.657   0.721   2.893  1.00  0.00     0.296 HD
ENDBRANCH   2   4
ENDBRANCH   1   2
BRANCH   1   6
ATOM      6  C   UNL     1       6.526   1.886   0.784  1.00  0.00     0.047 C 
BRANCH   6   7
ATOM      7  C   UNL     1       7.149   1.106  -0.317  1.00  0.00    -0.047 A 
ATOM      8  C   UNL     1       6.402   0.194  -1.049  1.00  0.00     0.004 A 
ATOM      9  C   UNL     1       8.482   1.232  -0.662  1.00  0.00     0.004 A 
ATOM     10  C   UNL     1       6.953  -0.551  -2.067  1.00  0.00     0.000 A 
ATOM     11  C   UNL     1       9.032   0.485  -1.682  1.00  0.00     0.000 A 
ATOM     12  C   UNL     1       8.285  -0.419  -2.403  1.00  0.00     0.000 A 
ENDBRANCH   6   7
ENDBRANCH   1   6
TORSDOF 4
ENDMDL
MODEL 4
REMARK VINA RESULT:      -6.6      1.916      2.634
REMARK SMILES O=C(O)CCc1ccccc1
REMARK SMILES IDX 4 1 2 2 1 3 3 4 5 6 6 7 7 8 11 9 8 10 10 11 9 12
REMARK H PARENT 3 5
REMARK Flexibility Score: inf
ROOT
ATOM      1  C   UNL     1       8.179   0.267  -2.174  1.00  0.00     0.127 C 
ENDROOT
BRANCH   1   2
ATOM      2  C   UNL     1       9.342   0.375  -1.276  1.00  0.00     0.303 C 
ATOM      3  O   UNL     1       9.433  -0.411  -0.294  1.00  0.00    -0.252 OA
BRANCH   2   4
ATOM      4  O   UNL     1      10.356   1.323  -1.476  1.00  0.00    -0.481 OA
ATOM      5  H   UNL     1      10.330   1.889  -2.314  1.00  0.00     0.296 HD
ENDBRANCH   2   4
ENDBRANCH   1   2
BRANCH   1   6
ATOM      6  C   UNL     1       7.073  -0.587  -1.580  1.00  0.00     0.047 C 
BRANCH   6   7
ATOM      7  C   UNL     1       6.325   0.160  -0.536  1.00  0.00    -0.047 A 
ATOM      8  C   UNL     1       6.150  -0.377   0.731  1.00  0.00     0.004 A 
ATOM      9  C   UNL     1       5.762   1.403  -0.764  1.00  0.00     0.004 A 
ATOM     10  C   UNL     1       5.454   0.285   1.716  1.00  0.00     0.000 A 
ATOM     11  C   UNL     1       5.065   2.065   0.224  1.00  0.00     0.000 A 
ATOM     12  C   UNL     1       4.895   1.524   1.478  1.00  0.00     0.000 A 
ENDBRANCH   6   7
ENDBRANCH   1   6
TORSDOF 4
ENDMDL
MODEL 5
REMARK VINA RESULT:      -6.6      1.924      2.962
REMARK SMILES O=C(O)CCc1ccccc1
REMARK SMILES IDX 4 1 2 2 1 3 3 4 5 6 6 7 7 8 11 9 8 10 10 11 9 12
REMARK H PARENT 3 5
REMARK Flexibility Score: inf
ROOT
ATOM      1  C   UNL     1       8.225  -1.662   1.188  1.00  0.00     0.127 C 
ENDROOT
BRANCH   1   2
ATOM      2  C   UNL     1       8.616  -2.878   0.453  1.00  0.00     0.303 C 
ATOM      3  O   UNL     1       9.386  -3.709   1.008  1.00  0.00    -0.252 OA
BRANCH   2   4
ATOM      4  O   UNL     1       8.160  -3.146  -0.846  1.00  0.00    -0.481 OA
ATOM      5  H   UNL     1       8.438  -2.524  -1.594  1.00  0.00     0.296 HD
ENDBRANCH   2   4
ENDBRANCH   1   2
BRANCH   1   6
ATOM      6  C   UNL     1       6.723  -1.574   1.394  1.00  0.00     0.047 C 
BRANCH   6   7
ATOM      7  C   UNL     1       6.185  -0.301   0.848  1.00  0.00    -0.047 A 
ATOM      8  C   UNL     1       6.444   0.072  -0.463  1.00  0.00     0.004 A 
ATOM      9  C   UNL     1       5.419   0.571   1.599  1.00  0.00     0.004 A 
ATOM     10  C   UNL     1       5.969   1.249  -0.995  1.00  0.00     0.000 A 
ATOM     11  C   UNL     1       4.944   1.750   1.065  1.00  0.00     0.000 A 
ATOM     12  C   UNL     1       5.207   2.114  -0.236  1.00  0.00     0.000 A 
ENDBRANCH   6   7
ENDBRANCH   1   6
TORSDOF 4
ENDMDL
