@<TRIPOS>MOLECULE
/home/cewinharhar/GITHUB/reincatalyze/data/processed/docking_pred/2023-Apr-25-2248_maxeplen10_maxtrainstep1000_exh16_gamma099_lrac3e-4_lrcr1e-3/67714d3181cdcfbe83529be90e704c7fe5693ba3_ligand_2.pdbqt
 12 12 0 0 0
SMALL
GASTEIGER

@<TRIPOS>ATOM
      1  C          8.4040   -0.6520   -2.1370 C.3     1  UNL1        0.1270
      2  C          8.4270   -1.9180   -2.8890 C.2     1  UNL1        0.3030
      3  O          9.5250   -2.5190   -3.0450 O.2     1  UNL1       -0.2520
      4  O          7.2670   -2.4820   -3.4400 O.3     1  UNL1       -0.4810
      5  H          6.3920   -1.9860   -3.3360 H       1  UNL1        0.2960
      6  C          7.0230   -0.0210   -2.1160 C.3     1  UNL1        0.0470
      7  C          6.4830    0.0320   -0.7320 C.2     1  UNL1       -0.0470
      8  C          5.8300    1.1660   -0.2710 C.2     1  UNL1        0.0040
      9  C          6.6050   -1.0170    0.1600 C.2     1  UNL1        0.0040
     10  C          5.3280    1.2510    1.0070 C.2     1  UNL1        0.0000
     11  C          6.1010   -0.9310    1.4400 C.2     1  UNL1        0.0000
     12  C          5.4560    0.1980    1.8910 C.2     1  UNL1        0.0000
@<TRIPOS>BOND
     1     4     5    1
     2     4     2    1
     3     3     2    2
     4     2     1    1
     5     1     6    1
     6     6     7    1
     7     7     8    2
     8     7     9    1
     9     8    10    1
    10     9    11    2
    11    10    12    2
    12    11    12    1
