@<TRIPOS>MOLECULE
/home/cewinharhar/GITHUB/reincatalyze/data/processed/docking_pred/2023-Apr-25-2248_maxeplen10_maxtrainstep1000_exh16_gamma099_lrac3e-4_lrcr1e-3/67714d3181cdcfbe83529be90e704c7fe5693ba3_ligand_2.pdbqt
 12 12 0 0 0
SMALL
GASTEIGER

@<TRIPOS>ATOM
      1  C          8.2250   -1.6620    1.1880 C.3     1  UNL1        0.1270
      2  C          8.6160   -2.8780    0.4530 C.2     1  UNL1        0.3030
      3  O          9.3860   -3.7090    1.0080 O.2     1  UNL1       -0.2520
      4  O          8.1600   -3.1460   -0.8460 O.3     1  UNL1       -0.4810
      5  H          8.4380   -2.5240   -1.5940 H       1  UNL1        0.2960
      6  C          6.7230   -1.5740    1.3940 C.3     1  UNL1        0.0470
      7  C          6.1850   -0.3010    0.8480 C.2     1  UNL1       -0.0470
      8  C          6.4440    0.0720   -0.4630 C.2     1  UNL1        0.0040
      9  C          5.4190    0.5710    1.5990 C.2     1  UNL1        0.0040
     10  C          5.9690    1.2490   -0.9950 C.2     1  UNL1        0.0000
     11  C          4.9440    1.7500    1.0650 C.2     1  UNL1        0.0000
     12  C          5.2070    2.1140   -0.2360 C.2     1  UNL1        0.0000
@<TRIPOS>BOND
     1     5     4    1
     2    10     8    1
     3    10    12    2
     4     4     2    1
     5     8     7    2
     6    12    11    1
     7     2     3    2
     8     2     1    1
     9     7     6    1
    10     7     9    1
    11    11     9    2
    12     1     6    1
