@<TRIPOS>MOLECULE
/home/cewinharhar/GITHUB/reincatalyze/data/processed/docking_pred/2023-Apr-25-2248_maxeplen10_maxtrainstep1000_exh16_gamma099_lrac3e-4_lrcr1e-3/677496c5c46bc5e4ac1ff58ba47d0b72a83fedc5_ligand_2.pdbqt
 12 12 0 0 0
SMALL
GASTEIGER

@<TRIPOS>ATOM
      1  C          7.9950   -2.2720    0.7190 C.3     1  UNL1        0.1270
      2  C          8.7910   -3.4410    0.3040 C.2     1  UNL1        0.3030
      3  O          9.6630   -3.8980    1.0910 O.2     1  UNL1       -0.2520
      4  O          8.6100   -4.0660   -0.9380 O.3     1  UNL1       -0.4810
      5  H          8.3740   -5.0490   -0.9560 H       1  UNL1        0.2960
      6  C          7.5100   -1.4580   -0.4670 C.3     1  UNL1        0.0470
      7  C          6.6360   -0.3400   -0.0250 C.2     1  UNL1       -0.0470
      8  C          6.0980   -0.3270    1.2540 C.2     1  UNL1        0.0040
      9  C          6.3080    0.7230   -0.8450 C.2     1  UNL1        0.0040
     10  C          5.2770    0.6880    1.6900 C.2     1  UNL1        0.0000
     11  C          5.4860    1.7390   -0.4070 C.2     1  UNL1        0.0000
     12  C          4.9540    1.7450    0.8630 C.2     1  UNL1        0.0000
@<TRIPOS>BOND
     1     5     4    1
     2     4     2    1
     3     9    11    1
     4     9     7    2
     5     6     7    1
     6     6     1    1
     7    11    12    2
     8     7     8    1
     9     2     1    1
    10     2     3    2
    11    12    10    1
    12     8    10    2
