@<TRIPOS>MOLECULE
/home/cewinharhar/GITHUB/reincatalyze/data/processed/docking_pred/2023-Apr-25-2248_maxeplen10_maxtrainstep1000_exh16_gamma099_lrac3e-4_lrcr1e-3/677496c5c46bc5e4ac1ff58ba47d0b72a83fedc5_ligand_2.pdbqt
 12 12 0 0 0
SMALL
GASTEIGER

@<TRIPOS>ATOM
      1  C          8.4080   -0.6500   -2.1330 C.3     1  UNL1        0.1270
      2  C          8.4250   -1.9110   -2.8960 C.2     1  UNL1        0.3030
      3  O          9.5210   -2.5140   -3.0580 O.2     1  UNL1       -0.2520
      4  O          7.2620   -2.4660   -3.4490 O.3     1  UNL1       -0.4810
      5  H          6.3890   -1.9680   -3.3400 H       1  UNL1        0.2960
      6  C          7.0290   -0.0150   -2.1050 C.3     1  UNL1        0.0470
      7  C          6.4880    0.0220   -0.7210 C.2     1  UNL1       -0.0470
      8  C          5.8370    1.1520   -0.2460 C.2     1  UNL1        0.0040
      9  C          6.6070   -1.0380    0.1580 C.2     1  UNL1        0.0040
     10  C          5.3350    1.2220    1.0330 C.2     1  UNL1        0.0000
     11  C          6.1030   -0.9670    1.4390 C.2     1  UNL1        0.0000
     12  C          5.4600    0.1580    1.9030 C.2     1  UNL1        0.0000
@<TRIPOS>BOND
     1     4     5    1
     2     4     2    1
     3     3     2    2
     4     2     1    1
     5     1     6    1
     6     6     7    1
     7     7     8    2
     8     7     9    1
     9     8    10    1
    10     9    11    2
    11    10    12    2
    12    11    12    1
