MODEL 1
REMARK VINA RESULT:      -7.3      0.000      0.000
REMARK SMILES O=C(O)CCc1ccccc1
REMARK SMILES IDX 4 1 2 2 1 3 3 4 5 6 6 7 7 8 11 9 8 10 10 11 9 12
REMARK H PARENT 3 5
REMARK Flexibility Score: inf
ROOT
ATOM      1  C   UNL     1       8.408  -0.650  -2.133  1.00  0.00     0.127 C 
ENDROOT
BRANCH   1   2
ATOM      2  C   UNL     1       8.425  -1.911  -2.896  1.00  0.00     0.303 C 
ATOM      3  O   UNL     1       9.521  -2.514  -3.058  1.00  0.00    -0.252 OA
BRANCH   2   4
ATOM      4  O   UNL     1       7.262  -2.466  -3.449  1.00  0.00    -0.481 OA
ATOM      5  H   UNL     1       6.389  -1.968  -3.340  1.00  0.00     0.296 HD
ENDBRANCH   2   4
ENDBRANCH   1   2
BRANCH   1   6
ATOM      6  C   UNL     1       7.029  -0.015  -2.105  1.00  0.00     0.047 C 
BRANCH   6   7
ATOM      7  C   UNL     1       6.488   0.022  -0.721  1.00  0.00    -0.047 A 
ATOM      8  C   UNL     1       5.837   1.152  -0.246  1.00  0.00     0.004 A 
ATOM      9  C   UNL     1       6.607  -1.038   0.158  1.00  0.00     0.004 A 
ATOM     10  C   UNL     1       5.335   1.222   1.033  1.00  0.00     0.000 A 
ATOM     11  C   UNL     1       6.103  -0.967   1.439  1.00  0.00     0.000 A 
ATOM     12  C   UNL     1       5.460   0.158   1.903  1.00  0.00     0.000 A 
ENDBRANCH   6   7
ENDBRANCH   1   6
TORSDOF 4
ENDMDL
MODEL 2
REMARK VINA RESULT:      -7.3      0.077      1.423
REMARK SMILES O=C(O)CCc1ccccc1
REMARK SMILES IDX 4 1 2 2 1 3 3 4 5 6 6 7 7 8 11 9 8 10 10 11 9 12
REMARK H PARENT 3 5
REMARK Flexibility Score: inf
ROOT
ATOM      1  C   UNL     1       8.408  -0.618  -2.176  1.00  0.00     0.127 C 
ENDROOT
BRANCH   1   2
ATOM      2  C   UNL     1       8.450  -1.894  -2.912  1.00  0.00     0.303 C 
ATOM      3  O   UNL     1       9.560  -2.469  -3.077  1.00  0.00    -0.252 OA
BRANCH   2   4
ATOM      4  O   UNL     1       7.296  -2.494  -3.436  1.00  0.00    -0.481 OA
ATOM      5  H   UNL     1       6.516  -2.665  -2.815  1.00  0.00     0.296 HD
ENDBRANCH   2   4
ENDBRANCH   1   2
BRANCH   1   6
ATOM      6  C   UNL     1       7.020  -0.003  -2.173  1.00  0.00     0.047 C 
BRANCH   6   7
ATOM      7  C   UNL     1       6.484   0.095  -0.790  1.00  0.00    -0.047 A 
ATOM      8  C   UNL     1       6.595  -0.973   0.089  1.00  0.00     0.004 A 
ATOM      9  C   UNL     1       5.849   1.226  -0.312  1.00  0.00     0.004 A 
ATOM     10  C   UNL     1       6.099  -0.918   1.372  1.00  0.00     0.000 A 
ATOM     11  C   UNL     1       5.353   1.280   0.973  1.00  0.00     0.000 A 
ATOM     12  C   UNL     1       5.466   0.216   1.839  1.00  0.00     0.000 A 
ENDBRANCH   6   7
ENDBRANCH   1   6
TORSDOF 4
ENDMDL
MODEL 3
REMARK VINA RESULT:      -6.8      3.394      5.075
REMARK SMILES O=C(O)CCc1ccccc1
REMARK SMILES IDX 4 1 2 2 1 3 3 4 5 6 6 7 7 8 11 9 8 10 10 11 9 12
REMARK H PARENT 3 5
REMARK Flexibility Score: inf
ROOT
ATOM      1  C   UNL     1       5.000   1.787   0.705  1.00  0.00     0.127 C 
ENDROOT
BRANCH   1   2
ATOM      2  C   UNL     1       4.481   1.120   1.912  1.00  0.00     0.303 C 
ATOM      3  O   UNL     1       5.175   0.221   2.461  1.00  0.00    -0.252 OA
BRANCH   2   4
ATOM      4  O   UNL     1       3.240   1.451   2.475  1.00  0.00    -0.481 OA
ATOM      5  H   UNL     1       3.205   1.702   3.454  1.00  0.00     0.296 HD
ENDBRANCH   2   4
ENDBRANCH   1   2
BRANCH   1   6
ATOM      6  C   UNL     1       6.513   1.911   0.723  1.00  0.00     0.047 C 
BRANCH   6   7
ATOM      7  C   UNL     1       7.128   1.089  -0.352  1.00  0.00    -0.047 A 
ATOM      8  C   UNL     1       8.479   1.205  -0.646  1.00  0.00     0.004 A 
ATOM      9  C   UNL     1       6.404   0.187  -1.111  1.00  0.00     0.004 A 
ATOM     10  C   UNL     1       9.075   0.466  -1.642  1.00  0.00     0.000 A 
ATOM     11  C   UNL     1       7.004  -0.553  -2.107  1.00  0.00     0.000 A 
ATOM     12  C   UNL     1       8.344  -0.431  -2.395  1.00  0.00     0.000 A 
ENDBRANCH   6   7
ENDBRANCH   1   6
TORSDOF 4
ENDMDL
MODEL 4
REMARK VINA RESULT:      -6.6      2.031      2.755
REMARK SMILES O=C(O)CCc1ccccc1
REMARK SMILES IDX 4 1 2 2 1 3 3 4 5 6 6 7 7 8 11 9 8 10 10 11 9 12
REMARK H PARENT 3 5
REMARK Flexibility Score: inf
ROOT
ATOM      1  C   UNL     1       7.995  -2.272   0.719  1.00  0.00     0.127 C 
ENDROOT
BRANCH   1   2
ATOM      2  C   UNL     1       8.791  -3.441   0.304  1.00  0.00     0.303 C 
ATOM      3  O   UNL     1       9.663  -3.898   1.091  1.00  0.00    -0.252 OA
BRANCH   2   4
ATOM      4  O   UNL     1       8.610  -4.066  -0.938  1.00  0.00    -0.481 OA
ATOM      5  H   UNL     1       8.374  -5.049  -0.956  1.00  0.00     0.296 HD
ENDBRANCH   2   4
ENDBRANCH   1   2
BRANCH   1   6
ATOM      6  C   UNL     1       7.510  -1.458  -0.467  1.00  0.00     0.047 C 
BRANCH   6   7
ATOM      7  C   UNL     1       6.636  -0.340  -0.025  1.00  0.00    -0.047 A 
ATOM      8  C   UNL     1       6.098  -0.327   1.254  1.00  0.00     0.004 A 
ATOM      9  C   UNL     1       6.308   0.723  -0.845  1.00  0.00     0.004 A 
ATOM     10  C   UNL     1       5.277   0.688   1.690  1.00  0.00     0.000 A 
ATOM     11  C   UNL     1       5.486   1.739  -0.407  1.00  0.00     0.000 A 
ATOM     12  C   UNL     1       4.954   1.745   0.863  1.00  0.00     0.000 A 
ENDBRANCH   6   7
ENDBRANCH   1   6
TORSDOF 4
ENDMDL
MODEL 5
REMARK VINA RESULT:      -6.6      2.039      2.375
REMARK SMILES O=C(O)CCc1ccccc1
REMARK SMILES IDX 4 1 2 2 1 3 3 4 5 6 6 7 7 8 11 9 8 10 10 11 9 12
REMARK H PARENT 3 5
REMARK Flexibility Score: inf
ROOT
ATOM      1  C   UNL     1       8.423   0.388  -1.795  1.00  0.00     0.127 C 
ENDROOT
BRANCH   1   2
ATOM      2  C   UNL     1       9.573   0.208  -0.892  1.00  0.00     0.303 C 
ATOM      3  O   UNL     1       9.444  -0.525   0.126  1.00  0.00    -0.252 OA
BRANCH   2   4
ATOM      4  O   UNL     1      10.811   0.824  -1.127  1.00  0.00    -0.481 OA
ATOM      5  H   UNL     1      10.910   1.807  -0.914  1.00  0.00     0.296 HD
ENDBRANCH   2   4
ENDBRANCH   1   2
BRANCH   1   6
ATOM      6  C   UNL     1       7.250  -0.497  -1.413  1.00  0.00     0.047 C 
BRANCH   6   7
ATOM      7  C   UNL     1       6.394   0.164  -0.394  1.00  0.00    -0.047 A 
ATOM      8  C   UNL     1       5.803   1.392  -0.654  1.00  0.00     0.004 A 
ATOM      9  C   UNL     1       6.149  -0.388   0.850  1.00  0.00     0.004 A 
ATOM     10  C   UNL     1       5.014   2.035   0.272  1.00  0.00     0.000 A 
ATOM     11  C   UNL     1       5.358   0.257   1.777  1.00  0.00     0.000 A 
ATOM     12  C   UNL     1       4.777   1.476   1.511  1.00  0.00     0.000 A 
ENDBRANCH   6   7
ENDBRANCH   1   6
TORSDOF 4
ENDMDL
