@<TRIPOS>MOLECULE
/home/cewinharhar/GITHUB/reincatalyze/data/processed/docking_pred/2023-Apr-25-2248_maxeplen10_maxtrainstep1000_exh16_gamma099_lrac3e-4_lrcr1e-3/677496c5c46bc5e4ac1ff58ba47d0b72a83fedc5_ligand_2.pdbqt
 12 12 0 0 0
SMALL
GASTEIGER

@<TRIPOS>ATOM
      1  C          8.4230    0.3880   -1.7950 C.3     1  UNL1        0.1270
      2  C          9.5730    0.2080   -0.8920 C.2     1  UNL1        0.3030
      3  O          9.4440   -0.5250    0.1260 O.2     1  UNL1       -0.2520
      4  O         10.8110    0.8240   -1.1270 O.3     1  UNL1       -0.4810
      5  H         10.9100    1.8070   -0.9140 H       1  UNL1        0.2960
      6  C          7.2500   -0.4970   -1.4130 C.3     1  UNL1        0.0470
      7  C          6.3940    0.1640   -0.3940 C.2     1  UNL1       -0.0470
      8  C          5.8030    1.3920   -0.6540 C.2     1  UNL1        0.0040
      9  C          6.1490   -0.3880    0.8500 C.2     1  UNL1        0.0040
     10  C          5.0140    2.0350    0.2720 C.2     1  UNL1        0.0000
     11  C          5.3580    0.2570    1.7770 C.2     1  UNL1        0.0000
     12  C          4.7770    1.4760    1.5110 C.2     1  UNL1        0.0000
@<TRIPOS>BOND
     1     1     6    1
     2     1     2    1
     3     6     7    1
     4     4     5    1
     5     4     2    1
     6     2     3    2
     7     8     7    2
     8     8    10    1
     9     7     9    1
    10    10    12    2
    11     9    11    2
    12    12    11    1
