@<TRIPOS>MOLECULE
/home/cewinharhar/GITHUB/reincatalyze/data/processed/docking_pred/2023-Apr-25-2248_maxeplen10_maxtrainstep1000_exh16_gamma099_lrac3e-4_lrcr1e-3/677496c5c46bc5e4ac1ff58ba47d0b72a83fedc5_ligand_2.pdbqt
 12 12 0 0 0
SMALL
GASTEIGER

@<TRIPOS>ATOM
      1  C          5.0000    1.7870    0.7050 C.3     1  UNL1        0.1270
      2  C          4.4810    1.1200    1.9120 C.2     1  UNL1        0.3030
      3  O          5.1750    0.2210    2.4610 O.2     1  UNL1       -0.2520
      4  O          3.2400    1.4510    2.4750 O.3     1  UNL1       -0.4810
      5  H          3.2050    1.7020    3.4540 H       1  UNL1        0.2960
      6  C          6.5130    1.9110    0.7230 C.3     1  UNL1        0.0470
      7  C          7.1280    1.0890   -0.3520 C.2     1  UNL1       -0.0470
      8  C          8.4790    1.2050   -0.6460 C.2     1  UNL1        0.0040
      9  C          6.4040    0.1870   -1.1110 C.2     1  UNL1        0.0040
     10  C          9.0750    0.4660   -1.6420 C.2     1  UNL1        0.0000
     11  C          7.0040   -0.5530   -2.1070 C.2     1  UNL1        0.0000
     12  C          8.3440   -0.4310   -2.3950 C.2     1  UNL1        0.0000
@<TRIPOS>BOND
     1    12    11    2
     2    12    10    1
     3    11     9    1
     4    10     8    2
     5     9     7    2
     6     8     7    1
     7     7     6    1
     8     1     6    1
     9     1     2    1
    10     2     3    2
    11     2     4    1
    12     4     5    1
