@<TRIPOS>MOLECULE
/home/cewinharhar/GITHUB/reincatalyze/data/processed/docking_pred/2023-Apr-25-2248_maxeplen10_maxtrainstep1000_exh16_gamma099_lrac3e-4_lrcr1e-3/67ebe37560d6b2ff0daae954040d2bc7ae74be81_ligand_2.pdbqt
 12 12 0 0 0
SMALL
GASTEIGER

@<TRIPOS>ATOM
      1  C          8.4120   -0.6310   -2.1680 C.3     1  UNL1        0.1270
      2  C          8.4440   -1.9100   -2.9000 C.2     1  UNL1        0.3030
      3  O          9.5480   -2.4990   -3.0550 O.2     1  UNL1       -0.2520
      4  O          7.2860   -2.4980   -3.4290 O.3     1  UNL1       -0.4810
      5  H          7.3870   -3.1990   -4.1510 H       1  UNL1        0.2960
      6  C          7.0290   -0.0030   -2.1710 C.3     1  UNL1        0.0470
      7  C          6.4910    0.1050   -0.7900 C.2     1  UNL1       -0.0470
      8  C          6.6180   -0.9490    0.1040 C.2     1  UNL1        0.0040
      9  C          5.8380    1.2330   -0.3270 C.2     1  UNL1        0.0040
     10  C          6.1210   -0.8840    1.3850 C.2     1  UNL1        0.0000
     11  C          5.3420    1.2970    0.9570 C.2     1  UNL1        0.0000
     12  C          5.4700    0.2460    1.8370 C.2     1  UNL1        0.0000
@<TRIPOS>BOND
     1     5     4    1
     2     4     2    1
     3     3     2    2
     4     2     1    1
     5     6     1    1
     6     6     7    1
     7     7     9    2
     8     7     8    1
     9     9    11    1
    10     8    10    2
    11    11    12    2
    12    10    12    1
