@<TRIPOS>MOLECULE
/home/cewinharhar/GITHUB/reincatalyze/data/processed/docking_pred/2023-Apr-25-2248_maxeplen10_maxtrainstep1000_exh16_gamma099_lrac3e-4_lrcr1e-3/67ebe37560d6b2ff0daae954040d2bc7ae74be81_ligand_2.pdbqt
 12 12 0 0 0
SMALL
GASTEIGER

@<TRIPOS>ATOM
      1  C          8.2810    0.2010   -2.1650 C.3     1  UNL1        0.1270
      2  C          9.3980    0.4160   -1.2270 C.2     1  UNL1        0.3030
      3  O          9.4960   -0.3250   -0.2120 O.2     1  UNL1       -0.2520
      4  O         10.3590    1.4170   -1.4260 O.3     1  UNL1       -0.4810
      5  H         10.3000    1.9840   -2.2610 H       1  UNL1        0.2960
      6  C          7.1660   -0.6260   -1.5500 C.3     1  UNL1        0.0470
      7  C          6.3710    0.1840   -0.5900 C.2     1  UNL1       -0.0470
      8  C          5.8530    1.4160   -0.9630 C.2     1  UNL1        0.0040
      9  C          6.1130   -0.2290    0.7040 C.2     1  UNL1        0.0040
     10  C          5.1210    2.1940   -0.0950 C.2     1  UNL1        0.0000
     11  C          5.3800    0.5510    1.5730 C.2     1  UNL1        0.0000
     12  C          4.8710    1.7730    1.1960 C.2     1  UNL1        0.0000
@<TRIPOS>BOND
     1     5     4    1
     2     1     6    1
     3     1     2    1
     4     6     7    1
     5     4     2    1
     6     2     3    2
     7     8     7    2
     8     8    10    1
     9     7     9    1
    10    10    12    2
    11     9    11    2
    12    12    11    1
