@<TRIPOS>MOLECULE
/home/cewinharhar/GITHUB/reincatalyze/data/processed/docking_pred/2023-Apr-25-2248_maxeplen10_maxtrainstep1000_exh16_gamma099_lrac3e-4_lrcr1e-3/67ebe37560d6b2ff0daae954040d2bc7ae74be81_ligand_2.pdbqt
 12 12 0 0 0
SMALL
GASTEIGER

@<TRIPOS>ATOM
      1  C          4.9850    1.7790    0.7460 C.3     1  UNL1        0.1270
      2  C          4.4500    1.0960    1.9370 C.2     1  UNL1        0.3030
      3  O          5.1240    0.1720    2.4680 O.2     1  UNL1       -0.2520
      4  O          3.2140    1.4390    2.5040 O.3     1  UNL1       -0.4810
      5  H          3.1010    2.3660    2.8920 H       1  UNL1        0.2960
      6  C          6.4990    1.8850    0.7770 C.3     1  UNL1        0.0470
      7  C          7.1120    1.0890   -0.3180 C.2     1  UNL1       -0.0470
      8  C          8.4490    1.2540   -0.6500 C.2     1  UNL1        0.0040
      9  C          6.4000    0.1660   -1.0610 C.2     1  UNL1        0.0040
     10  C          9.0430    0.5400   -1.6650 C.2     1  UNL1        0.0000
     11  C          6.9960   -0.5490   -2.0780 C.2     1  UNL1        0.0000
     12  C          8.3230   -0.3790   -2.4020 C.2     1  UNL1        0.0000
@<TRIPOS>BOND
     1    12    11    2
     2    12    10    1
     3    11     9    1
     4    10     8    2
     5     9     7    2
     6     8     7    1
     7     7     6    1
     8     1     6    1
     9     1     2    1
    10     2     3    2
    11     2     4    1
    12     4     5    1
