@<TRIPOS>MOLECULE
/home/cewinharhar/GITHUB/reincatalyze/data/processed/docking_pred/2023-Apr-25-2248_maxeplen10_maxtrainstep1000_exh16_gamma099_lrac3e-4_lrcr1e-3/67ebe37560d6b2ff0daae954040d2bc7ae74be81_ligand_2.pdbqt
 12 12 0 0 0
SMALL
GASTEIGER

@<TRIPOS>ATOM
      1  C          8.4150   -0.6090   -2.2200 C.3     1  UNL1        0.1270
      2  C          8.4550   -1.9010   -2.9260 C.2     1  UNL1        0.3030
      3  O          9.5650   -2.4800   -3.0810 O.2     1  UNL1       -0.2520
      4  O          7.3000   -2.5130   -3.4340 O.3     1  UNL1       -0.4810
      5  H          6.8800   -2.1340   -4.2720 H       1  UNL1        0.2960
      6  C          7.0200   -0.0090   -2.2000 C.3     1  UNL1        0.0470
      7  C          6.4940    0.0700   -0.8120 C.2     1  UNL1       -0.0470
      8  C          5.8610    1.2190   -0.3600 C.2     1  UNL1        0.0040
      9  C          6.6110   -0.9690    0.0930 C.2     1  UNL1        0.0040
     10  C          5.3720    1.3270    0.9220 C.2     1  UNL1        0.0000
     11  C          6.1210   -0.8590    1.3770 C.2     1  UNL1        0.0000
     12  C          5.4950    0.2850    1.8190 C.2     1  UNL1        0.0000
@<TRIPOS>BOND
     1     5     4    1
     2     4     2    1
     3     3     2    2
     4     2     1    1
     5     1     6    1
     6     6     7    1
     7     7     8    2
     8     7     9    1
     9     8    10    1
    10     9    11    2
    11    10    12    2
    12    11    12    1
