MODEL 1
REMARK VINA RESULT:      -7.3      0.000      0.000
REMARK SMILES O=C(O)CCc1ccccc1
REMARK SMILES IDX 4 1 2 2 1 3 3 4 5 6 6 7 7 8 11 9 8 10 10 11 9 12
REMARK H PARENT 3 5
REMARK Flexibility Score: inf
ROOT
ATOM      1  C   UNL     1       8.412  -0.631  -2.168  1.00  0.00     0.127 C 
ENDROOT
BRANCH   1   2
ATOM      2  C   UNL     1       8.444  -1.910  -2.900  1.00  0.00     0.303 C 
ATOM      3  O   UNL     1       9.548  -2.499  -3.055  1.00  0.00    -0.252 OA
BRANCH   2   4
ATOM      4  O   UNL     1       7.286  -2.498  -3.429  1.00  0.00    -0.481 OA
ATOM      5  H   UNL     1       7.387  -3.199  -4.151  1.00  0.00     0.296 HD
ENDBRANCH   2   4
ENDBRANCH   1   2
BRANCH   1   6
ATOM      6  C   UNL     1       7.029  -0.003  -2.171  1.00  0.00     0.047 C 
BRANCH   6   7
ATOM      7  C   UNL     1       6.491   0.105  -0.790  1.00  0.00    -0.047 A 
ATOM      8  C   UNL     1       6.618  -0.949   0.104  1.00  0.00     0.004 A 
ATOM      9  C   UNL     1       5.838   1.233  -0.327  1.00  0.00     0.004 A 
ATOM     10  C   UNL     1       6.121  -0.884   1.385  1.00  0.00     0.000 A 
ATOM     11  C   UNL     1       5.342   1.297   0.957  1.00  0.00     0.000 A 
ATOM     12  C   UNL     1       5.470   0.246   1.837  1.00  0.00     0.000 A 
ENDBRANCH   6   7
ENDBRANCH   1   6
TORSDOF 4
ENDMDL
MODEL 2
REMARK VINA RESULT:      -7.3      0.039      1.421
REMARK SMILES O=C(O)CCc1ccccc1
REMARK SMILES IDX 4 1 2 2 1 3 3 4 5 6 6 7 7 8 11 9 8 10 10 11 9 12
REMARK H PARENT 3 5
REMARK Flexibility Score: inf
ROOT
ATOM      1  C   UNL     1       8.415  -0.609  -2.220  1.00  0.00     0.127 C 
ENDROOT
BRANCH   1   2
ATOM      2  C   UNL     1       8.455  -1.901  -2.926  1.00  0.00     0.303 C 
ATOM      3  O   UNL     1       9.565  -2.480  -3.081  1.00  0.00    -0.252 OA
BRANCH   2   4
ATOM      4  O   UNL     1       7.300  -2.513  -3.434  1.00  0.00    -0.481 OA
ATOM      5  H   UNL     1       6.880  -2.134  -4.272  1.00  0.00     0.296 HD
ENDBRANCH   2   4
ENDBRANCH   1   2
BRANCH   1   6
ATOM      6  C   UNL     1       7.020  -0.009  -2.200  1.00  0.00     0.047 C 
BRANCH   6   7
ATOM      7  C   UNL     1       6.494   0.070  -0.812  1.00  0.00    -0.047 A 
ATOM      8  C   UNL     1       5.861   1.219  -0.360  1.00  0.00     0.004 A 
ATOM      9  C   UNL     1       6.611  -0.969   0.093  1.00  0.00     0.004 A 
ATOM     10  C   UNL     1       5.372   1.327   0.922  1.00  0.00     0.000 A 
ATOM     11  C   UNL     1       6.121  -0.859   1.377  1.00  0.00     0.000 A 
ATOM     12  C   UNL     1       5.495   0.285   1.819  1.00  0.00     0.000 A 
ENDBRANCH   6   7
ENDBRANCH   1   6
TORSDOF 4
ENDMDL
MODEL 3
REMARK VINA RESULT:      -7.2      0.648      1.634
REMARK SMILES O=C(O)CCc1ccccc1
REMARK SMILES IDX 4 1 2 2 1 3 3 4 5 6 6 7 7 8 11 9 8 10 10 11 9 12
REMARK H PARENT 3 5
REMARK Flexibility Score: inf
ROOT
ATOM      1  C   UNL     1       8.330  -1.003  -1.807  1.00  0.00     0.127 C 
ENDROOT
BRANCH   1   2
ATOM      2  C   UNL     1       8.419  -2.049  -2.841  1.00  0.00     0.303 C 
ATOM      3  O   UNL     1       9.543  -2.556  -3.103  1.00  0.00    -0.252 OA
BRANCH   2   4
ATOM      4  O   UNL     1       7.294  -2.503  -3.545  1.00  0.00    -0.481 OA
ATOM      5  H   UNL     1       7.274  -2.389  -4.549  1.00  0.00     0.296 HD
ENDBRANCH   2   4
ENDBRANCH   1   2
BRANCH   1   6
ATOM      6  C   UNL     1       7.578  -1.476  -0.576  1.00  0.00     0.047 C 
BRANCH   6   7
ATOM      7  C   UNL     1       6.682  -0.409  -0.057  1.00  0.00    -0.047 A 
ATOM      8  C   UNL     1       6.352   0.684  -0.845  1.00  0.00     0.004 A 
ATOM      9  C   UNL     1       6.144  -0.438   1.217  1.00  0.00     0.004 A 
ATOM     10  C   UNL     1       5.534   1.692  -0.390  1.00  0.00     0.000 A 
ATOM     11  C   UNL     1       5.325   0.573   1.671  1.00  0.00     0.000 A 
ATOM     12  C   UNL     1       5.003   1.655   0.884  1.00  0.00     0.000 A 
ENDBRANCH   6   7
ENDBRANCH   1   6
TORSDOF 4
ENDMDL
MODEL 4
REMARK VINA RESULT:      -6.8      3.399      5.095
REMARK SMILES O=C(O)CCc1ccccc1
REMARK SMILES IDX 4 1 2 2 1 3 3 4 5 6 6 7 7 8 11 9 8 10 10 11 9 12
REMARK H PARENT 3 5
REMARK Flexibility Score: inf
ROOT
ATOM      1  C   UNL     1       4.985   1.779   0.746  1.00  0.00     0.127 C 
ENDROOT
BRANCH   1   2
ATOM      2  C   UNL     1       4.450   1.096   1.937  1.00  0.00     0.303 C 
ATOM      3  O   UNL     1       5.124   0.172   2.468  1.00  0.00    -0.252 OA
BRANCH   2   4
ATOM      4  O   UNL     1       3.214   1.439   2.504  1.00  0.00    -0.481 OA
ATOM      5  H   UNL     1       3.101   2.366   2.892  1.00  0.00     0.296 HD
ENDBRANCH   2   4
ENDBRANCH   1   2
BRANCH   1   6
ATOM      6  C   UNL     1       6.499   1.885   0.777  1.00  0.00     0.047 C 
BRANCH   6   7
ATOM      7  C   UNL     1       7.112   1.089  -0.318  1.00  0.00    -0.047 A 
ATOM      8  C   UNL     1       8.449   1.254  -0.650  1.00  0.00     0.004 A 
ATOM      9  C   UNL     1       6.400   0.166  -1.061  1.00  0.00     0.004 A 
ATOM     10  C   UNL     1       9.043   0.540  -1.665  1.00  0.00     0.000 A 
ATOM     11  C   UNL     1       6.996  -0.549  -2.078  1.00  0.00     0.000 A 
ATOM     12  C   UNL     1       8.323  -0.379  -2.402  1.00  0.00     0.000 A 
ENDBRANCH   6   7
ENDBRANCH   1   6
TORSDOF 4
ENDMDL
MODEL 5
REMARK VINA RESULT:      -6.7      1.966      2.690
REMARK SMILES O=C(O)CCc1ccccc1
REMARK SMILES IDX 4 1 2 2 1 3 3 4 5 6 6 7 7 8 11 9 8 10 10 11 9 12
REMARK H PARENT 3 5
REMARK Flexibility Score: inf
ROOT
ATOM      1  C   UNL     1       8.281   0.201  -2.165  1.00  0.00     0.127 C 
ENDROOT
BRANCH   1   2
ATOM      2  C   UNL     1       9.398   0.416  -1.227  1.00  0.00     0.303 C 
ATOM      3  O   UNL     1       9.496  -0.325  -0.212  1.00  0.00    -0.252 OA
BRANCH   2   4
ATOM      4  O   UNL     1      10.359   1.417  -1.426  1.00  0.00    -0.481 OA
ATOM      5  H   UNL     1      10.300   1.984  -2.261  1.00  0.00     0.296 HD
ENDBRANCH   2   4
ENDBRANCH   1   2
BRANCH   1   6
ATOM      6  C   UNL     1       7.166  -0.626  -1.550  1.00  0.00     0.047 C 
BRANCH   6   7
ATOM      7  C   UNL     1       6.371   0.184  -0.590  1.00  0.00    -0.047 A 
ATOM      8  C   UNL     1       5.853   1.416  -0.963  1.00  0.00     0.004 A 
ATOM      9  C   UNL     1       6.113  -0.229   0.704  1.00  0.00     0.004 A 
ATOM     10  C   UNL     1       5.121   2.194  -0.095  1.00  0.00     0.000 A 
ATOM     11  C   UNL     1       5.380   0.551   1.573  1.00  0.00     0.000 A 
ATOM     12  C   UNL     1       4.871   1.773   1.196  1.00  0.00     0.000 A 
ENDBRANCH   6   7
ENDBRANCH   1   6
TORSDOF 4
ENDMDL
