@<TRIPOS>MOLECULE
/home/cewinharhar/GITHUB/reincatalyze/data/processed/docking_pred/2023-Apr-25-2248_maxeplen10_maxtrainstep1000_exh16_gamma099_lrac3e-4_lrcr1e-3/681e80220216c71ec10eb1429598bf11558fcb24_ligand_2.pdbqt
 12 12 0 0 0
SMALL
GASTEIGER

@<TRIPOS>ATOM
      1  C          8.4100   -0.6810   -2.1000 C.3     1  UNL1        0.1270
      2  C          8.4400   -1.9230   -2.8930 C.2     1  UNL1        0.3030
      3  O          9.5440   -2.4990   -3.0870 O.2     1  UNL1       -0.2520
      4  O          7.2780   -2.4900   -3.4380 O.3     1  UNL1       -0.4810
      5  H          6.3980   -2.0130   -3.3020 H       1  UNL1        0.2960
      6  C          7.0430   -0.0210   -2.1180 C.3     1  UNL1        0.0470
      7  C          6.4790    0.0720   -0.7460 C.2     1  UNL1       -0.0470
      8  C          5.8230    1.2200   -0.3270 C.2     1  UNL1        0.0040
      9  C          6.5800   -0.9540    0.1760 C.2     1  UNL1        0.0040
     10  C          5.2990    1.3410    0.9400 C.2     1  UNL1        0.0000
     11  C          6.0550   -0.8320    1.4440 C.2     1  UNL1        0.0000
     12  C          5.4070    0.3120    1.8530 C.2     1  UNL1        0.0000
@<TRIPOS>BOND
     1     4     5    1
     2     4     2    1
     3     3     2    2
     4     2     1    1
     5     6     1    1
     6     6     7    1
     7     7     8    2
     8     7     9    1
     9     8    10    1
    10     9    11    2
    11    10    12    2
    12    11    12    1
