@<TRIPOS>MOLECULE
/home/cewinharhar/GITHUB/reincatalyze/data/processed/docking_pred/2023-Apr-25-2248_maxeplen10_maxtrainstep1000_exh16_gamma099_lrac3e-4_lrcr1e-3/681e80220216c71ec10eb1429598bf11558fcb24_ligand_2.pdbqt
 12 12 0 0 0
SMALL
GASTEIGER

@<TRIPOS>ATOM
      1  C          8.0440   -2.4470    0.5160 C.3     1  UNL1        0.1270
      2  C          8.5160   -3.7840    0.9180 C.2     1  UNL1        0.3030
      3  O          9.7560   -3.9940    1.0080 O.2     1  UNL1       -0.2520
      4  O          7.6330   -4.8340    1.2070 O.3     1  UNL1       -0.4810
      5  H          6.8320   -4.9720    0.6050 H       1  UNL1        0.2960
      6  C          7.0060   -1.8930    1.4750 C.3     1  UNL1        0.0470
      7  C          6.4140   -0.6340    0.9510 C.2     1  UNL1       -0.0470
      8  C          6.6380   -0.2390   -0.3600 C.2     1  UNL1        0.0040
      9  C          5.6320    0.2040    1.7250 C.2     1  UNL1        0.0040
     10  C          6.1140    0.9250   -0.8720 C.2     1  UNL1        0.0000
     11  C          5.1080    1.3700    1.2110 C.2     1  UNL1        0.0000
     12  C          5.3360    1.7560   -0.0910 C.2     1  UNL1        0.0000
@<TRIPOS>BOND
     1    10     8    1
     2    10    12    2
     3     8     7    2
     4    12    11    1
     5     1     2    1
     6     1     6    1
     7     5     4    1
     8     2     3    2
     9     2     4    1
    10     7     6    1
    11     7     9    1
    12    11     9    2
