@<TRIPOS>MOLECULE
/home/cewinharhar/GITHUB/reincatalyze/data/processed/docking_pred/2023-Apr-25-2248_maxeplen10_maxtrainstep1000_exh16_gamma099_lrac3e-4_lrcr1e-3/681e80220216c71ec10eb1429598bf11558fcb24_ligand_2.pdbqt
 12 12 0 0 0
SMALL
GASTEIGER

@<TRIPOS>ATOM
      1  C          8.3080   -1.0840   -1.6730 C.3     1  UNL1        0.1270
      2  C          8.4140   -2.0310   -2.7970 C.2     1  UNL1        0.3030
      3  O          9.5530   -2.4430   -3.1450 O.2     1  UNL1       -0.2520
      4  O          7.2880   -2.4940   -3.4930 O.3     1  UNL1       -0.4810
      5  H          6.8920   -3.3870   -3.2340 H       1  UNL1        0.2960
      6  C          7.3370   -1.5630   -0.6080 C.3     1  UNL1        0.0470
      7  C          6.5320   -0.4330   -0.0750 C.2     1  UNL1       -0.0470
      8  C          6.2360    0.6630   -0.8720 C.2     1  UNL1        0.0040
      9  C          6.0490   -0.4050    1.2210 C.2     1  UNL1        0.0040
     10  C          5.5020    1.7290   -0.4040 C.2     1  UNL1        0.0000
     11  C          5.3130    0.6630    1.6870 C.2     1  UNL1        0.0000
     12  C          5.0250    1.7490    0.8910 C.2     1  UNL1        0.0000
@<TRIPOS>BOND
     1     4     5    1
     2     4     2    1
     3     3     2    2
     4     2     1    1
     5     1     6    1
     6     8    10    1
     7     8     7    2
     8     6     7    1
     9    10    12    2
    10     7     9    1
    11    12    11    1
    12     9    11    2
