@<TRIPOS>MOLECULE
/home/cewinharhar/GITHUB/reincatalyze/data/processed/docking_pred/2023-Apr-25-2248_maxeplen10_maxtrainstep1000_exh16_gamma099_lrac3e-4_lrcr1e-3/681e80220216c71ec10eb1429598bf11558fcb24_ligand_2.pdbqt
 12 12 0 0 0
SMALL
GASTEIGER

@<TRIPOS>ATOM
      1  C          8.3820   -0.6600   -2.1100 C.3     1  UNL1        0.1270
      2  C          8.3890   -1.9140   -2.8840 C.2     1  UNL1        0.3030
      3  O          7.2900   -2.4170   -3.2430 O.2     1  UNL1       -0.2520
      4  O          9.5770   -2.5690   -3.2370 O.3     1  UNL1       -0.4810
      5  H          9.8890   -2.5190   -4.1980 H       1  UNL1        0.2960
      6  C          7.0230    0.0160   -2.1230 C.3     1  UNL1        0.0470
      7  C          6.4690    0.1250   -0.7490 C.2     1  UNL1       -0.0470
      8  C          6.6070   -0.9190    0.1550 C.2     1  UNL1        0.0040
      9  C          5.7900    1.2440   -0.3020 C.2     1  UNL1        0.0040
     10  C          6.0960   -0.8530    1.4310 C.2     1  UNL1        0.0000
     11  C          5.2790    1.3090    0.9760 C.2     1  UNL1        0.0000
     12  C          5.4190    0.2680    1.8670 C.2     1  UNL1        0.0000
@<TRIPOS>BOND
     1     5     4    1
     2     3     2    2
     3     4     2    1
     4     2     1    1
     5     6     1    1
     6     6     7    1
     7     7     9    2
     8     7     8    1
     9     9    11    1
    10     8    10    2
    11    11    12    2
    12    10    12    1
