MODEL 1
REMARK VINA RESULT:      -7.2      0.000      0.000
REMARK SMILES O=C(O)CCc1ccccc1
REMARK SMILES IDX 4 1 2 2 1 3 3 4 5 6 6 7 7 8 11 9 8 10 10 11 9 12
REMARK H PARENT 3 5
REMARK Flexibility Score: inf
ROOT
ATOM      1  C   UNL     1       8.410  -0.681  -2.100  1.00  0.00     0.127 C 
ENDROOT
BRANCH   1   2
ATOM      2  C   UNL     1       8.440  -1.923  -2.893  1.00  0.00     0.303 C 
ATOM      3  O   UNL     1       9.544  -2.499  -3.087  1.00  0.00    -0.252 OA
BRANCH   2   4
ATOM      4  O   UNL     1       7.278  -2.490  -3.438  1.00  0.00    -0.481 OA
ATOM      5  H   UNL     1       6.398  -2.013  -3.302  1.00  0.00     0.296 HD
ENDBRANCH   2   4
ENDBRANCH   1   2
BRANCH   1   6
ATOM      6  C   UNL     1       7.043  -0.021  -2.118  1.00  0.00     0.047 C 
BRANCH   6   7
ATOM      7  C   UNL     1       6.479   0.072  -0.746  1.00  0.00    -0.047 A 
ATOM      8  C   UNL     1       5.823   1.220  -0.327  1.00  0.00     0.004 A 
ATOM      9  C   UNL     1       6.580  -0.954   0.176  1.00  0.00     0.004 A 
ATOM     10  C   UNL     1       5.299   1.341   0.940  1.00  0.00     0.000 A 
ATOM     11  C   UNL     1       6.055  -0.832   1.444  1.00  0.00     0.000 A 
ATOM     12  C   UNL     1       5.407   0.312   1.853  1.00  0.00     0.000 A 
ENDBRANCH   6   7
ENDBRANCH   1   6
TORSDOF 4
ENDMDL
MODEL 2
REMARK VINA RESULT:      -7.2      0.092      1.723
REMARK SMILES O=C(O)CCc1ccccc1
REMARK SMILES IDX 4 1 2 2 1 3 3 4 5 6 6 7 7 8 11 9 8 10 10 11 9 12
REMARK H PARENT 3 5
REMARK Flexibility Score: inf
ROOT
ATOM      1  C   UNL     1       8.382  -0.660  -2.110  1.00  0.00     0.127 C 
ENDROOT
BRANCH   1   2
ATOM      2  C   UNL     1       8.389  -1.914  -2.884  1.00  0.00     0.303 C 
ATOM      3  O   UNL     1       7.290  -2.417  -3.243  1.00  0.00    -0.252 OA
BRANCH   2   4
ATOM      4  O   UNL     1       9.577  -2.569  -3.237  1.00  0.00    -0.481 OA
ATOM      5  H   UNL     1       9.889  -2.519  -4.198  1.00  0.00     0.296 HD
ENDBRANCH   2   4
ENDBRANCH   1   2
BRANCH   1   6
ATOM      6  C   UNL     1       7.023   0.016  -2.123  1.00  0.00     0.047 C 
BRANCH   6   7
ATOM      7  C   UNL     1       6.469   0.125  -0.749  1.00  0.00    -0.047 A 
ATOM      8  C   UNL     1       6.607  -0.919   0.155  1.00  0.00     0.004 A 
ATOM      9  C   UNL     1       5.790   1.244  -0.302  1.00  0.00     0.004 A 
ATOM     10  C   UNL     1       6.096  -0.853   1.431  1.00  0.00     0.000 A 
ATOM     11  C   UNL     1       5.279   1.309   0.976  1.00  0.00     0.000 A 
ATOM     12  C   UNL     1       5.419   0.268   1.867  1.00  0.00     0.000 A 
ENDBRANCH   6   7
ENDBRANCH   1   6
TORSDOF 4
ENDMDL
MODEL 3
REMARK VINA RESULT:      -7.1      2.523      3.266
REMARK SMILES O=C(O)CCc1ccccc1
REMARK SMILES IDX 4 1 2 2 1 3 3 4 5 6 6 7 7 8 11 9 8 10 10 11 9 12
REMARK H PARENT 3 5
REMARK Flexibility Score: inf
ROOT
ATOM      1  C   UNL     1       8.044  -2.447   0.516  1.00  0.00     0.127 C 
ENDROOT
BRANCH   1   2
ATOM      2  C   UNL     1       8.516  -3.784   0.918  1.00  0.00     0.303 C 
ATOM      3  O   UNL     1       9.756  -3.994   1.008  1.00  0.00    -0.252 OA
BRANCH   2   4
ATOM      4  O   UNL     1       7.633  -4.834   1.207  1.00  0.00    -0.481 OA
ATOM      5  H   UNL     1       6.832  -4.972   0.605  1.00  0.00     0.296 HD
ENDBRANCH   2   4
ENDBRANCH   1   2
BRANCH   1   6
ATOM      6  C   UNL     1       7.006  -1.893   1.475  1.00  0.00     0.047 C 
BRANCH   6   7
ATOM      7  C   UNL     1       6.414  -0.634   0.951  1.00  0.00    -0.047 A 
ATOM      8  C   UNL     1       6.638  -0.239  -0.360  1.00  0.00     0.004 A 
ATOM      9  C   UNL     1       5.632   0.204   1.725  1.00  0.00     0.004 A 
ATOM     10  C   UNL     1       6.114   0.925  -0.872  1.00  0.00     0.000 A 
ATOM     11  C   UNL     1       5.108   1.370   1.211  1.00  0.00     0.000 A 
ATOM     12  C   UNL     1       5.336   1.756  -0.091  1.00  0.00     0.000 A 
ENDBRANCH   6   7
ENDBRANCH   1   6
TORSDOF 4
ENDMDL
MODEL 4
REMARK VINA RESULT:      -7.0      0.662      1.216
REMARK SMILES O=C(O)CCc1ccccc1
REMARK SMILES IDX 4 1 2 2 1 3 3 4 5 6 6 7 7 8 11 9 8 10 10 11 9 12
REMARK H PARENT 3 5
REMARK Flexibility Score: inf
ROOT
ATOM      1  C   UNL     1       8.308  -1.084  -1.673  1.00  0.00     0.127 C 
ENDROOT
BRANCH   1   2
ATOM      2  C   UNL     1       8.414  -2.031  -2.797  1.00  0.00     0.303 C 
ATOM      3  O   UNL     1       9.553  -2.443  -3.145  1.00  0.00    -0.252 OA
BRANCH   2   4
ATOM      4  O   UNL     1       7.288  -2.494  -3.493  1.00  0.00    -0.481 OA
ATOM      5  H   UNL     1       6.892  -3.387  -3.234  1.00  0.00     0.296 HD
ENDBRANCH   2   4
ENDBRANCH   1   2
BRANCH   1   6
ATOM      6  C   UNL     1       7.337  -1.563  -0.608  1.00  0.00     0.047 C 
BRANCH   6   7
ATOM      7  C   UNL     1       6.532  -0.433  -0.075  1.00  0.00    -0.047 A 
ATOM      8  C   UNL     1       6.236   0.663  -0.872  1.00  0.00     0.004 A 
ATOM      9  C   UNL     1       6.049  -0.405   1.221  1.00  0.00     0.004 A 
ATOM     10  C   UNL     1       5.502   1.729  -0.404  1.00  0.00     0.000 A 
ATOM     11  C   UNL     1       5.313   0.663   1.687  1.00  0.00     0.000 A 
ATOM     12  C   UNL     1       5.025   1.749   0.891  1.00  0.00     0.000 A 
ENDBRANCH   6   7
ENDBRANCH   1   6
TORSDOF 4
ENDMDL
MODEL 5
REMARK VINA RESULT:      -6.7      3.397      5.083
REMARK SMILES O=C(O)CCc1ccccc1
REMARK SMILES IDX 4 1 2 2 1 3 3 4 5 6 6 7 7 8 11 9 8 10 10 11 9 12
REMARK H PARENT 3 5
REMARK Flexibility Score: inf
ROOT
ATOM      1  C   UNL     1       5.025   1.789   0.753  1.00  0.00     0.127 C 
ENDROOT
BRANCH   1   2
ATOM      2  C   UNL     1       4.472   1.110   1.938  1.00  0.00     0.303 C 
ATOM      3  O   UNL     1       5.141   0.190   2.484  1.00  0.00    -0.252 OA
BRANCH   2   4
ATOM      4  O   UNL     1       3.226   1.452   2.483  1.00  0.00    -0.481 OA
ATOM      5  H   UNL     1       2.523   0.731   2.570  1.00  0.00     0.296 HD
ENDBRANCH   2   4
ENDBRANCH   1   2
BRANCH   1   6
ATOM      6  C   UNL     1       6.542   1.857   0.786  1.00  0.00     0.047 C 
BRANCH   6   7
ATOM      7  C   UNL     1       7.135   1.054  -0.315  1.00  0.00    -0.047 A 
ATOM      8  C   UNL     1       8.465   1.220  -0.675  1.00  0.00     0.004 A 
ATOM      9  C   UNL     1       6.411   0.123  -1.037  1.00  0.00     0.004 A 
ATOM     10  C   UNL     1       9.040   0.500  -1.697  1.00  0.00     0.000 A 
ATOM     11  C   UNL     1       6.989  -0.598  -2.060  1.00  0.00     0.000 A 
ATOM     12  C   UNL     1       8.308  -0.426  -2.412  1.00  0.00     0.000 A 
ENDBRANCH   6   7
ENDBRANCH   1   6
TORSDOF 4
ENDMDL
