@<TRIPOS>MOLECULE
/home/cewinharhar/GITHUB/reincatalyze/data/processed/docking_pred/2023-Apr-25-2248_maxeplen10_maxtrainstep1000_exh16_gamma099_lrac3e-4_lrcr1e-3/681e80220216c71ec10eb1429598bf11558fcb24_ligand_2.pdbqt
 12 12 0 0 0
SMALL
GASTEIGER

@<TRIPOS>ATOM
      1  C          5.0250    1.7890    0.7530 C.3     1  UNL1        0.1270
      2  C          4.4720    1.1100    1.9380 C.2     1  UNL1        0.3030
      3  O          5.1410    0.1900    2.4840 O.2     1  UNL1       -0.2520
      4  O          3.2260    1.4520    2.4830 O.3     1  UNL1       -0.4810
      5  H          2.5230    0.7310    2.5700 H       1  UNL1        0.2960
      6  C          6.5420    1.8570    0.7860 C.3     1  UNL1        0.0470
      7  C          7.1350    1.0540   -0.3150 C.2     1  UNL1       -0.0470
      8  C          8.4650    1.2200   -0.6750 C.2     1  UNL1        0.0040
      9  C          6.4110    0.1230   -1.0370 C.2     1  UNL1        0.0040
     10  C          9.0400    0.5000   -1.6970 C.2     1  UNL1        0.0000
     11  C          6.9890   -0.5980   -2.0600 C.2     1  UNL1        0.0000
     12  C          8.3080   -0.4260   -2.4120 C.2     1  UNL1        0.0000
@<TRIPOS>BOND
     1    12    11    2
     2    12    10    1
     3    11     9    1
     4    10     8    2
     5     9     7    2
     6     8     7    1
     7     7     6    1
     8     1     6    1
     9     1     2    1
    10     2     4    1
    11     2     3    2
    12     4     5    1
