MODEL 1
REMARK VINA RESULT:      -7.3      0.000      0.000
REMARK SMILES O=C(O)CCc1ccccc1
REMARK SMILES IDX 4 1 2 2 1 3 3 4 5 6 6 7 7 8 11 9 8 10 10 11 9 12
REMARK H PARENT 3 5
REMARK Flexibility Score: inf
ROOT
ATOM      1  C   UNL     1       8.389  -0.664  -2.118  1.00  0.00     0.127 C 
ENDROOT
BRANCH   1   2
ATOM      2  C   UNL     1       8.425  -1.920  -2.888  1.00  0.00     0.303 C 
ATOM      3  O   UNL     1       9.528  -2.509  -3.048  1.00  0.00    -0.252 OA
BRANCH   2   4
ATOM      4  O   UNL     1       7.271  -2.485  -3.450  1.00  0.00    -0.481 OA
ATOM      5  H   UNL     1       6.883  -2.064  -4.284  1.00  0.00     0.296 HD
ENDBRANCH   2   4
ENDBRANCH   1   2
BRANCH   1   6
ATOM      6  C   UNL     1       7.006  -0.038  -2.104  1.00  0.00     0.047 C 
BRANCH   6   7
ATOM      7  C   UNL     1       6.472   0.042  -0.719  1.00  0.00    -0.047 A 
ATOM      8  C   UNL     1       6.613  -1.025   0.157  1.00  0.00     0.004 A 
ATOM      9  C   UNL     1       5.808   1.155  -0.236  1.00  0.00     0.004 A 
ATOM     10  C   UNL     1       6.121  -0.986   1.441  1.00  0.00     0.000 A 
ATOM     11  C   UNL     1       5.315   1.192   1.051  1.00  0.00     0.000 A 
ATOM     12  C   UNL     1       5.458   0.129   1.913  1.00  0.00     0.000 A 
ENDBRANCH   6   7
ENDBRANCH   1   6
TORSDOF 4
ENDMDL
MODEL 2
REMARK VINA RESULT:      -7.3      0.092      1.423
REMARK SMILES O=C(O)CCc1ccccc1
REMARK SMILES IDX 4 1 2 2 1 3 3 4 5 6 6 7 7 8 11 9 8 10 10 11 9 12
REMARK H PARENT 3 5
REMARK Flexibility Score: inf
ROOT
ATOM      1  C   UNL     1       8.401  -0.594  -2.213  1.00  0.00     0.127 C 
ENDROOT
BRANCH   1   2
ATOM      2  C   UNL     1       8.438  -1.887  -2.917  1.00  0.00     0.303 C 
ATOM      3  O   UNL     1       9.544  -2.476  -3.058  1.00  0.00    -0.252 OA
BRANCH   2   4
ATOM      4  O   UNL     1       7.282  -2.489  -3.437  1.00  0.00    -0.481 OA
ATOM      5  H   UNL     1       7.281  -2.775  -4.407  1.00  0.00     0.296 HD
ENDBRANCH   2   4
ENDBRANCH   1   2
BRANCH   1   6
ATOM      6  C   UNL     1       7.005   0.003  -2.181  1.00  0.00     0.047 C 
BRANCH   6   7
ATOM      7  C   UNL     1       6.483   0.061  -0.790  1.00  0.00    -0.047 A 
ATOM      8  C   UNL     1       5.841   1.199  -0.323  1.00  0.00     0.004 A 
ATOM      9  C   UNL     1       6.611  -0.987   0.102  1.00  0.00     0.004 A 
ATOM     10  C   UNL     1       5.356   1.289   0.962  1.00  0.00     0.000 A 
ATOM     11  C   UNL     1       6.125  -0.896   1.389  1.00  0.00     0.000 A 
ATOM     12  C   UNL     1       5.490   0.237   1.846  1.00  0.00     0.000 A 
ENDBRANCH   6   7
ENDBRANCH   1   6
TORSDOF 4
ENDMDL
MODEL 3
REMARK VINA RESULT:      -6.8      3.400      5.095
REMARK SMILES O=C(O)CCc1ccccc1
REMARK SMILES IDX 4 1 2 2 1 3 3 4 5 6 6 7 7 8 11 9 8 10 10 11 9 12
REMARK H PARENT 3 5
REMARK Flexibility Score: inf
ROOT
ATOM      1  C   UNL     1       5.008   1.792   0.701  1.00  0.00     0.127 C 
ENDROOT
BRANCH   1   2
ATOM      2  C   UNL     1       4.480   1.128   1.906  1.00  0.00     0.303 C 
ATOM      3  O   UNL     1       5.168   0.227   2.459  1.00  0.00    -0.252 OA
BRANCH   2   4
ATOM      4  O   UNL     1       3.238   1.465   2.463  1.00  0.00    -0.481 OA
ATOM      5  H   UNL     1       3.019   2.443   2.601  1.00  0.00     0.296 HD
ENDBRANCH   2   4
ENDBRANCH   1   2
BRANCH   1   6
ATOM      6  C   UNL     1       6.521   1.906   0.724  1.00  0.00     0.047 C 
BRANCH   6   7
ATOM      7  C   UNL     1       7.134   1.082  -0.350  1.00  0.00    -0.047 A 
ATOM      8  C   UNL     1       8.472   1.235  -0.683  1.00  0.00     0.004 A 
ATOM      9  C   UNL     1       6.421   0.141  -1.070  1.00  0.00     0.004 A 
ATOM     10  C   UNL     1       9.066   0.494  -1.679  1.00  0.00     0.000 A 
ATOM     11  C   UNL     1       7.017  -0.600  -2.068  1.00  0.00     0.000 A 
ATOM     12  C   UNL     1       8.345  -0.441  -2.394  1.00  0.00     0.000 A 
ENDBRANCH   6   7
ENDBRANCH   1   6
TORSDOF 4
ENDMDL
MODEL 4
REMARK VINA RESULT:      -6.6      1.864      2.891
REMARK SMILES O=C(O)CCc1ccccc1
REMARK SMILES IDX 4 1 2 2 1 3 3 4 5 6 6 7 7 8 11 9 8 10 10 11 9 12
REMARK H PARENT 3 5
REMARK Flexibility Score: inf
ROOT
ATOM      1  C   UNL     1       8.242  -1.633   1.057  1.00  0.00     0.127 C 
ENDROOT
BRANCH   1   2
ATOM      2  C   UNL     1       8.537  -2.839   0.264  1.00  0.00     0.303 C 
ATOM      3  O   UNL     1       9.179  -3.783   0.800  1.00  0.00    -0.252 OA
BRANCH   2   4
ATOM      4  O   UNL     1       8.128  -2.976  -1.070  1.00  0.00    -0.481 OA
ATOM      5  H   UNL     1       8.834  -3.098  -1.783  1.00  0.00     0.296 HD
ENDBRANCH   2   4
ENDBRANCH   1   2
BRANCH   1   6
ATOM      6  C   UNL     1       6.760  -1.492   1.356  1.00  0.00     0.047 C 
BRANCH   6   7
ATOM      7  C   UNL     1       6.221  -0.228   0.790  1.00  0.00    -0.047 A 
ATOM      8  C   UNL     1       5.435   0.615   1.562  1.00  0.00     0.004 A 
ATOM      9  C   UNL     1       6.456   0.168  -0.514  1.00  0.00     0.004 A 
ATOM     10  C   UNL     1       4.912   1.786   1.064  1.00  0.00     0.000 A 
ATOM     11  C   UNL     1       5.932   1.342  -1.011  1.00  0.00     0.000 A 
ATOM     12  C   UNL     1       5.152   2.172  -0.239  1.00  0.00     0.000 A 
ENDBRANCH   6   7
ENDBRANCH   1   6
TORSDOF 4
ENDMDL
MODEL 5
REMARK VINA RESULT:      -6.6      2.062      2.751
REMARK SMILES O=C(O)CCc1ccccc1
REMARK SMILES IDX 4 1 2 2 1 3 3 4 5 6 6 7 7 8 11 9 8 10 10 11 9 12
REMARK H PARENT 3 5
REMARK Flexibility Score: inf
ROOT
ATOM      1  C   UNL     1       8.513   0.651  -1.671  1.00  0.00     0.127 C 
ENDROOT
BRANCH   1   2
ATOM      2  C   UNL     1       9.666   0.275  -0.835  1.00  0.00     0.303 C 
ATOM      3  O   UNL     1       9.490  -0.519   0.129  1.00  0.00    -0.252 OA
BRANCH   2   4
ATOM      4  O   UNL     1      10.957   0.767  -1.075  1.00  0.00    -0.481 OA
ATOM      5  H   UNL     1      11.747   0.165  -0.887  1.00  0.00     0.296 HD
ENDBRANCH   2   4
ENDBRANCH   1   2
BRANCH   1   6
ATOM      6  C   UNL     1       7.321  -0.263  -1.451  1.00  0.00     0.047 C 
BRANCH   6   7
ATOM      7  C   UNL     1       6.435   0.266  -0.381  1.00  0.00    -0.047 A 
ATOM      8  C   UNL     1       5.798   1.489  -0.530  1.00  0.00     0.004 A 
ATOM      9  C   UNL     1       6.207  -0.410   0.804  1.00  0.00     0.004 A 
ATOM     10  C   UNL     1       4.980   2.010   0.446  1.00  0.00     0.000 A 
ATOM     11  C   UNL     1       5.388   0.113   1.781  1.00  0.00     0.000 A 
ATOM     12  C   UNL     1       4.760   1.328   1.626  1.00  0.00     0.000 A 
ENDBRANCH   6   7
ENDBRANCH   1   6
TORSDOF 4
ENDMDL
