@<TRIPOS>MOLECULE
/home/cewinharhar/GITHUB/reincatalyze/data/processed/docking_pred/2023-Apr-25-2248_maxeplen10_maxtrainstep1000_exh16_gamma099_lrac3e-4_lrcr1e-3/69e2ce579100b0ee4b56c8bb4a95d1562fd611af_ligand_2.pdbqt
 12 12 0 0 0
SMALL
GASTEIGER

@<TRIPOS>ATOM
      1  C          8.5130    0.6510   -1.6710 C.3     1  UNL1        0.1270
      2  C          9.6660    0.2750   -0.8350 C.2     1  UNL1        0.3030
      3  O          9.4900   -0.5190    0.1290 O.2     1  UNL1       -0.2520
      4  O         10.9570    0.7670   -1.0750 O.3     1  UNL1       -0.4810
      5  H         11.7470    0.1650   -0.8870 H       1  UNL1        0.2960
      6  C          7.3210   -0.2630   -1.4510 C.3     1  UNL1        0.0470
      7  C          6.4350    0.2660   -0.3810 C.2     1  UNL1       -0.0470
      8  C          5.7980    1.4890   -0.5300 C.2     1  UNL1        0.0040
      9  C          6.2070   -0.4100    0.8040 C.2     1  UNL1        0.0040
     10  C          4.9800    2.0100    0.4460 C.2     1  UNL1        0.0000
     11  C          5.3880    0.1130    1.7810 C.2     1  UNL1        0.0000
     12  C          4.7600    1.3280    1.6260 C.2     1  UNL1        0.0000
@<TRIPOS>BOND
     1     1     6    1
     2     1     2    1
     3     6     7    1
     4     4     5    1
     5     4     2    1
     6     2     3    2
     7     8     7    2
     8     8    10    1
     9     7     9    1
    10    10    12    2
    11     9    11    2
    12    12    11    1
