@<TRIPOS>MOLECULE
/home/cewinharhar/GITHUB/reincatalyze/data/processed/docking_pred/2023-Apr-25-2248_maxeplen10_maxtrainstep1000_exh16_gamma099_lrac3e-4_lrcr1e-3/69e2ce579100b0ee4b56c8bb4a95d1562fd611af_ligand_2.pdbqt
 12 12 0 0 0
SMALL
GASTEIGER

@<TRIPOS>ATOM
      1  C          8.2420   -1.6330    1.0570 C.3     1  UNL1        0.1270
      2  C          8.5370   -2.8390    0.2640 C.2     1  UNL1        0.3030
      3  O          9.1790   -3.7830    0.8000 O.2     1  UNL1       -0.2520
      4  O          8.1280   -2.9760   -1.0700 O.3     1  UNL1       -0.4810
      5  H          8.8340   -3.0980   -1.7830 H       1  UNL1        0.2960
      6  C          6.7600   -1.4920    1.3560 C.3     1  UNL1        0.0470
      7  C          6.2210   -0.2280    0.7900 C.2     1  UNL1       -0.0470
      8  C          5.4350    0.6150    1.5620 C.2     1  UNL1        0.0040
      9  C          6.4560    0.1680   -0.5140 C.2     1  UNL1        0.0040
     10  C          4.9120    1.7860    1.0640 C.2     1  UNL1        0.0000
     11  C          5.9320    1.3420   -1.0110 C.2     1  UNL1        0.0000
     12  C          5.1520    2.1720   -0.2390 C.2     1  UNL1        0.0000
@<TRIPOS>BOND
     1     5     4    1
     2     4     2    1
     3    11     9    1
     4    11    12    2
     5     9     7    2
     6    12    10    1
     7     2     3    2
     8     2     1    1
     9     7     6    1
    10     7     8    1
    11     1     6    1
    12    10     8    2
