@<TRIPOS>MOLECULE
/home/cewinharhar/GITHUB/reincatalyze/data/processed/docking_pred/2023-Apr-25-2248_maxeplen10_maxtrainstep1000_exh16_gamma099_lrac3e-4_lrcr1e-3/69e2ce579100b0ee4b56c8bb4a95d1562fd611af_ligand_2.pdbqt
 12 12 0 0 0
SMALL
GASTEIGER

@<TRIPOS>ATOM
      1  C          8.4010   -0.5940   -2.2130 C.3     1  UNL1        0.1270
      2  C          8.4380   -1.8870   -2.9170 C.2     1  UNL1        0.3030
      3  O          9.5440   -2.4760   -3.0580 O.2     1  UNL1       -0.2520
      4  O          7.2820   -2.4890   -3.4370 O.3     1  UNL1       -0.4810
      5  H          7.2810   -2.7750   -4.4070 H       1  UNL1        0.2960
      6  C          7.0050    0.0030   -2.1810 C.3     1  UNL1        0.0470
      7  C          6.4830    0.0610   -0.7900 C.2     1  UNL1       -0.0470
      8  C          5.8410    1.1990   -0.3230 C.2     1  UNL1        0.0040
      9  C          6.6110   -0.9870    0.1020 C.2     1  UNL1        0.0040
     10  C          5.3560    1.2890    0.9620 C.2     1  UNL1        0.0000
     11  C          6.1250   -0.8960    1.3890 C.2     1  UNL1        0.0000
     12  C          5.4900    0.2370    1.8460 C.2     1  UNL1        0.0000
@<TRIPOS>BOND
     1     5     4    1
     2     4     2    1
     3     3     2    2
     4     2     1    1
     5     1     6    1
     6     6     7    1
     7     7     8    2
     8     7     9    1
     9     8    10    1
    10     9    11    2
    11    10    12    2
    12    11    12    1
