@<TRIPOS>MOLECULE
/home/cewinharhar/GITHUB/reincatalyze/data/processed/docking_pred/2023-Apr-25-2248_maxeplen10_maxtrainstep1000_exh16_gamma099_lrac3e-4_lrcr1e-3/69e2ce579100b0ee4b56c8bb4a95d1562fd611af_ligand_2.pdbqt
 12 12 0 0 0
SMALL
GASTEIGER

@<TRIPOS>ATOM
      1  C          5.0080    1.7920    0.7010 C.3     1  UNL1        0.1270
      2  C          4.4800    1.1280    1.9060 C.2     1  UNL1        0.3030
      3  O          5.1680    0.2270    2.4590 O.2     1  UNL1       -0.2520
      4  O          3.2380    1.4650    2.4630 O.3     1  UNL1       -0.4810
      5  H          3.0190    2.4430    2.6010 H       1  UNL1        0.2960
      6  C          6.5210    1.9060    0.7240 C.3     1  UNL1        0.0470
      7  C          7.1340    1.0820   -0.3500 C.2     1  UNL1       -0.0470
      8  C          8.4720    1.2350   -0.6830 C.2     1  UNL1        0.0040
      9  C          6.4210    0.1410   -1.0700 C.2     1  UNL1        0.0040
     10  C          9.0660    0.4940   -1.6790 C.2     1  UNL1        0.0000
     11  C          7.0170   -0.6000   -2.0680 C.2     1  UNL1        0.0000
     12  C          8.3450   -0.4410   -2.3940 C.2     1  UNL1        0.0000
@<TRIPOS>BOND
     1    12    11    2
     2    12    10    1
     3    11     9    1
     4    10     8    2
     5     9     7    2
     6     8     7    1
     7     7     6    1
     8     1     6    1
     9     1     2    1
    10     2     3    2
    11     2     4    1
    12     4     5    1
