@<TRIPOS>MOLECULE
/home/cewinharhar/GITHUB/reincatalyze/data/processed/docking_pred/2023-Apr-25-2248_maxeplen10_maxtrainstep1000_exh16_gamma099_lrac3e-4_lrcr1e-3/69e2ce579100b0ee4b56c8bb4a95d1562fd611af_ligand_2.pdbqt
 12 12 0 0 0
SMALL
GASTEIGER

@<TRIPOS>ATOM
      1  C          8.3890   -0.6640   -2.1180 C.3     1  UNL1        0.1270
      2  C          8.4250   -1.9200   -2.8880 C.2     1  UNL1        0.3030
      3  O          9.5280   -2.5090   -3.0480 O.2     1  UNL1       -0.2520
      4  O          7.2710   -2.4850   -3.4500 O.3     1  UNL1       -0.4810
      5  H          6.8830   -2.0640   -4.2840 H       1  UNL1        0.2960
      6  C          7.0060   -0.0380   -2.1040 C.3     1  UNL1        0.0470
      7  C          6.4720    0.0420   -0.7190 C.2     1  UNL1       -0.0470
      8  C          6.6130   -1.0250    0.1570 C.2     1  UNL1        0.0040
      9  C          5.8080    1.1550   -0.2360 C.2     1  UNL1        0.0040
     10  C          6.1210   -0.9860    1.4410 C.2     1  UNL1        0.0000
     11  C          5.3150    1.1920    1.0510 C.2     1  UNL1        0.0000
     12  C          5.4580    0.1290    1.9130 C.2     1  UNL1        0.0000
@<TRIPOS>BOND
     1     5     4    1
     2     4     2    1
     3     3     2    2
     4     2     1    1
     5     1     6    1
     6     6     7    1
     7     7     9    2
     8     7     8    1
     9     9    11    1
    10     8    10    2
    11    11    12    2
    12    10    12    1
