@<TRIPOS>MOLECULE
/home/cewinharhar/GITHUB/reincatalyze/data/processed/docking_pred/2023-Apr-25-2248_maxeplen10_maxtrainstep1000_exh16_gamma099_lrac3e-4_lrcr1e-3/6b061a7890d75c8b26c884693b3b8f9ee5a9c423_ligand_2.pdbqt
 12 12 0 0 0
SMALL
GASTEIGER

@<TRIPOS>ATOM
      1  C          5.4930    2.9190    0.0360 C.3     1  UNL1        0.1270
      2  C          6.2770    3.8770    0.8360 C.2     1  UNL1        0.3030
      3  O          6.9350    4.7750    0.2430 O.2     1  UNL1       -0.2520
      4  O          6.3160    3.8270    2.2360 O.3     1  UNL1       -0.4810
      5  H          5.4750    3.5670    2.7340 H       1  UNL1        0.2960
      6  C          4.8390    1.8530    0.8970 C.3     1  UNL1        0.0470
      7  C          5.6740    0.6240    0.9480 C.2     1  UNL1       -0.0470
      8  C          6.3830    0.2030   -0.1680 C.2     1  UNL1        0.0040
      9  C          5.7820   -0.1610    2.0820 C.2     1  UNL1        0.0040
     10  C          7.1550   -0.9350   -0.1560 C.2     1  UNL1        0.0000
     11  C          6.5560   -1.3010    2.0920 C.2     1  UNL1        0.0000
     12  C          7.2560   -1.7130    0.9810 C.2     1  UNL1        0.0000
@<TRIPOS>BOND
     1     8    10    1
     2     8     7    2
     3    10    12    2
     4     1     2    1
     5     1     6    1
     6     3     2    2
     7     2     4    1
     8     6     7    1
     9     7     9    1
    10    12    11    1
    11     9    11    2
    12     4     5    1
