@<TRIPOS>MOLECULE
/home/cewinharhar/GITHUB/reincatalyze/data/processed/docking_pred/2023-Apr-25-2248_maxeplen10_maxtrainstep1000_exh16_gamma099_lrac3e-4_lrcr1e-3/6b061a7890d75c8b26c884693b3b8f9ee5a9c423_ligand_2.pdbqt
 12 12 0 0 0
SMALL
GASTEIGER

@<TRIPOS>ATOM
      1  C          5.0090    1.7750    0.7330 C.3     1  UNL1        0.1270
      2  C          4.4720    1.1100    1.9340 C.2     1  UNL1        0.3030
      3  O          5.1520    0.2050    2.4880 O.2     1  UNL1       -0.2520
      4  O          3.2290    1.4520    2.4840 O.3     1  UNL1       -0.4810
      5  H          2.6270    2.0800    1.9680 H       1  UNL1        0.2960
      6  C          6.5220    1.8980    0.7740 C.3     1  UNL1        0.0470
      7  C          7.1500    1.1110   -0.3190 C.2     1  UNL1       -0.0470
      8  C          6.4030    0.2030   -1.0570 C.2     1  UNL1        0.0040
      9  C          8.4880    1.2260   -0.6520 C.2     1  UNL1        0.0040
     10  C          6.9580   -0.5480   -2.0680 C.2     1  UNL1        0.0000
     11  C          9.0410    0.4730   -1.6640 C.2     1  UNL1        0.0000
     12  C          8.2940   -0.4270   -2.3910 C.2     1  UNL1        0.0000
@<TRIPOS>BOND
     1    12    10    2
     2    12    11    1
     3    10     8    1
     4    11     9    2
     5     8     7    2
     6     9     7    1
     7     7     6    1
     8     1     6    1
     9     1     2    1
    10     2     4    1
    11     2     3    2
    12     5     4    1
