MODEL 1
REMARK VINA RESULT:      -7.3      0.000      0.000
REMARK SMILES O=C(O)CCc1ccccc1
REMARK SMILES IDX 4 1 2 2 1 3 3 4 5 6 6 7 7 8 11 9 8 10 10 11 9 12
REMARK H PARENT 3 5
REMARK Flexibility Score: inf
ROOT
ATOM      1  C   UNL     1       8.417  -0.613  -2.177  1.00  0.00     0.127 C 
ENDROOT
BRANCH   1   2
ATOM      2  C   UNL     1       8.451  -1.895  -2.903  1.00  0.00     0.303 C 
ATOM      3  O   UNL     1       9.558  -2.476  -3.069  1.00  0.00    -0.252 OA
BRANCH   2   4
ATOM      4  O   UNL     1       7.292  -2.495  -3.417  1.00  0.00    -0.481 OA
ATOM      5  H   UNL     1       6.409  -2.015  -3.305  1.00  0.00     0.296 HD
ENDBRANCH   2   4
ENDBRANCH   1   2
BRANCH   1   6
ATOM      6  C   UNL     1       7.030   0.005  -2.169  1.00  0.00     0.047 C 
BRANCH   6   7
ATOM      7  C   UNL     1       6.486   0.073  -0.788  1.00  0.00    -0.047 A 
ATOM      8  C   UNL     1       5.833   1.213  -0.340  1.00  0.00     0.004 A 
ATOM      9  C   UNL     1       6.603  -0.968   0.115  1.00  0.00     0.004 A 
ATOM     10  C   UNL     1       5.327   1.311   0.936  1.00  0.00     0.000 A 
ATOM     11  C   UNL     1       6.096  -0.868   1.393  1.00  0.00     0.000 A 
ATOM     12  C   UNL     1       5.451   0.267   1.830  1.00  0.00     0.000 A 
ENDBRANCH   6   7
ENDBRANCH   1   6
TORSDOF 4
ENDMDL
MODEL 2
REMARK VINA RESULT:      -7.3      0.138      1.725
REMARK SMILES O=C(O)CCc1ccccc1
REMARK SMILES IDX 4 1 2 2 1 3 3 4 5 6 6 7 7 8 11 9 8 10 10 11 9 12
REMARK H PARENT 3 5
REMARK Flexibility Score: inf
ROOT
ATOM      1  C   UNL     1       8.396  -0.742  -2.017  1.00  0.00     0.127 C 
ENDROOT
BRANCH   1   2
ATOM      2  C   UNL     1       8.400  -1.946  -2.867  1.00  0.00     0.303 C 
ATOM      3  O   UNL     1       7.300  -2.428  -3.251  1.00  0.00    -0.252 OA
BRANCH   2   4
ATOM      4  O   UNL     1       9.588  -2.575  -3.266  1.00  0.00    -0.481 OA
ATOM      5  H   UNL     1      10.266  -2.040  -3.790  1.00  0.00     0.296 HD
ENDBRANCH   2   4
ENDBRANCH   1   2
BRANCH   1   6
ATOM      6  C   UNL     1       7.072  -0.002  -2.078  1.00  0.00     0.047 C 
BRANCH   6   7
ATOM      7  C   UNL     1       6.476   0.136  -0.724  1.00  0.00    -0.047 A 
ATOM      8  C   UNL     1       6.582  -0.891   0.204  1.00  0.00     0.004 A 
ATOM      9  C   UNL     1       5.787   1.265  -0.320  1.00  0.00     0.004 A 
ATOM     10  C   UNL     1       6.032  -0.798   1.462  1.00  0.00     0.000 A 
ATOM     11  C   UNL     1       5.238   1.357   0.941  1.00  0.00     0.000 A 
ATOM     12  C   UNL     1       5.346   0.333   1.855  1.00  0.00     0.000 A 
ENDBRANCH   6   7
ENDBRANCH   1   6
TORSDOF 4
ENDMDL
MODEL 3
REMARK VINA RESULT:      -6.8      3.390      5.064
REMARK SMILES O=C(O)CCc1ccccc1
REMARK SMILES IDX 4 1 2 2 1 3 3 4 5 6 6 7 7 8 11 9 8 10 10 11 9 12
REMARK H PARENT 3 5
REMARK Flexibility Score: inf
ROOT
ATOM      1  C   UNL     1       5.012   1.736   0.742  1.00  0.00     0.127 C 
ENDROOT
BRANCH   1   2
ATOM      2  C   UNL     1       4.464   1.077   1.941  1.00  0.00     0.303 C 
ATOM      3  O   UNL     1       5.128   0.157   2.491  1.00  0.00    -0.252 OA
BRANCH   2   4
ATOM      4  O   UNL     1       3.227   1.439   2.493  1.00  0.00    -0.481 OA
ATOM      5  H   UNL     1       3.165   1.570   3.494  1.00  0.00     0.296 HD
ENDBRANCH   2   4
ENDBRANCH   1   2
BRANCH   1   6
ATOM      6  C   UNL     1       6.528   1.824   0.778  1.00  0.00     0.047 C 
BRANCH   6   7
ATOM      7  C   UNL     1       7.134   1.021  -0.315  1.00  0.00    -0.047 A 
ATOM      8  C   UNL     1       8.454   1.223  -0.694  1.00  0.00     0.004 A 
ATOM      9  C   UNL     1       6.433   0.053  -1.010  1.00  0.00     0.004 A 
ATOM     10  C   UNL     1       9.041   0.503  -1.709  1.00  0.00     0.000 A 
ATOM     11  C   UNL     1       7.023  -0.668  -2.027  1.00  0.00     0.000 A 
ATOM     12  C   UNL     1       8.332  -0.460  -2.397  1.00  0.00     0.000 A 
ENDBRANCH   6   7
ENDBRANCH   1   6
TORSDOF 4
ENDMDL
MODEL 4
REMARK VINA RESULT:      -6.8      3.397      5.089
REMARK SMILES O=C(O)CCc1ccccc1
REMARK SMILES IDX 4 1 2 2 1 3 3 4 5 6 6 7 7 8 11 9 8 10 10 11 9 12
REMARK H PARENT 3 5
REMARK Flexibility Score: inf
ROOT
ATOM      1  C   UNL     1       5.009   1.775   0.733  1.00  0.00     0.127 C 
ENDROOT
BRANCH   1   2
ATOM      2  C   UNL     1       4.472   1.110   1.934  1.00  0.00     0.303 C 
ATOM      3  O   UNL     1       5.152   0.205   2.488  1.00  0.00    -0.252 OA
BRANCH   2   4
ATOM      4  O   UNL     1       3.229   1.452   2.484  1.00  0.00    -0.481 OA
ATOM      5  H   UNL     1       2.627   2.080   1.968  1.00  0.00     0.296 HD
ENDBRANCH   2   4
ENDBRANCH   1   2
BRANCH   1   6
ATOM      6  C   UNL     1       6.522   1.898   0.774  1.00  0.00     0.047 C 
BRANCH   6   7
ATOM      7  C   UNL     1       7.150   1.111  -0.319  1.00  0.00    -0.047 A 
ATOM      8  C   UNL     1       6.403   0.203  -1.057  1.00  0.00     0.004 A 
ATOM      9  C   UNL     1       8.488   1.226  -0.652  1.00  0.00     0.004 A 
ATOM     10  C   UNL     1       6.958  -0.548  -2.068  1.00  0.00     0.000 A 
ATOM     11  C   UNL     1       9.041   0.473  -1.664  1.00  0.00     0.000 A 
ATOM     12  C   UNL     1       8.294  -0.427  -2.391  1.00  0.00     0.000 A 
ENDBRANCH   6   7
ENDBRANCH   1   6
TORSDOF 4
ENDMDL
MODEL 5
REMARK VINA RESULT:      -6.7      3.827      4.934
REMARK SMILES O=C(O)CCc1ccccc1
REMARK SMILES IDX 4 1 2 2 1 3 3 4 5 6 6 7 7 8 11 9 8 10 10 11 9 12
REMARK H PARENT 3 5
REMARK Flexibility Score: inf
ROOT
ATOM      1  C   UNL     1       5.493   2.919   0.036  1.00  0.00     0.127 C 
ENDROOT
BRANCH   1   2
ATOM      2  C   UNL     1       6.277   3.877   0.836  1.00  0.00     0.303 C 
ATOM      3  O   UNL     1       6.935   4.775   0.243  1.00  0.00    -0.252 OA
BRANCH   2   4
ATOM      4  O   UNL     1       6.316   3.827   2.236  1.00  0.00    -0.481 OA
ATOM      5  H   UNL     1       5.475   3.567   2.734  1.00  0.00     0.296 HD
ENDBRANCH   2   4
ENDBRANCH   1   2
BRANCH   1   6
ATOM      6  C   UNL     1       4.839   1.853   0.897  1.00  0.00     0.047 C 
BRANCH   6   7
ATOM      7  C   UNL     1       5.674   0.624   0.948  1.00  0.00    -0.047 A 
ATOM      8  C   UNL     1       6.383   0.203  -0.168  1.00  0.00     0.004 A 
ATOM      9  C   UNL     1       5.782  -0.161   2.082  1.00  0.00     0.004 A 
ATOM     10  C   UNL     1       7.155  -0.935  -0.156  1.00  0.00     0.000 A 
ATOM     11  C   UNL     1       6.556  -1.301   2.092  1.00  0.00     0.000 A 
ATOM     12  C   UNL     1       7.256  -1.713   0.981  1.00  0.00     0.000 A 
ENDBRANCH   6   7
ENDBRANCH   1   6
TORSDOF 4
ENDMDL
