@<TRIPOS>MOLECULE
/home/cewinharhar/GITHUB/reincatalyze/data/processed/docking_pred/2023-Apr-25-2248_maxeplen10_maxtrainstep1000_exh16_gamma099_lrac3e-4_lrcr1e-3/6b061a7890d75c8b26c884693b3b8f9ee5a9c423_ligand_2.pdbqt
 12 12 0 0 0
SMALL
GASTEIGER

@<TRIPOS>ATOM
      1  C          8.3960   -0.7420   -2.0170 C.3     1  UNL1        0.1270
      2  C          8.4000   -1.9460   -2.8670 C.2     1  UNL1        0.3030
      3  O          7.3000   -2.4280   -3.2510 O.2     1  UNL1       -0.2520
      4  O          9.5880   -2.5750   -3.2660 O.3     1  UNL1       -0.4810
      5  H         10.2660   -2.0400   -3.7900 H       1  UNL1        0.2960
      6  C          7.0720   -0.0020   -2.0780 C.3     1  UNL1        0.0470
      7  C          6.4760    0.1360   -0.7240 C.2     1  UNL1       -0.0470
      8  C          6.5820   -0.8910    0.2040 C.2     1  UNL1        0.0040
      9  C          5.7870    1.2650   -0.3200 C.2     1  UNL1        0.0040
     10  C          6.0320   -0.7980    1.4620 C.2     1  UNL1        0.0000
     11  C          5.2380    1.3570    0.9410 C.2     1  UNL1        0.0000
     12  C          5.3460    0.3330    1.8550 C.2     1  UNL1        0.0000
@<TRIPOS>BOND
     1     5     4    1
     2     4     2    1
     3     3     2    2
     4     2     1    1
     5     6     1    1
     6     6     7    1
     7     7     9    2
     8     7     8    1
     9     9    11    1
    10     8    10    2
    11    11    12    2
    12    10    12    1
