@<TRIPOS>MOLECULE
/home/cewinharhar/GITHUB/reincatalyze/data/processed/docking_pred/2023-Apr-25-2248_maxeplen10_maxtrainstep1000_exh16_gamma099_lrac3e-4_lrcr1e-3/6b061a7890d75c8b26c884693b3b8f9ee5a9c423_ligand_2.pdbqt
 12 12 0 0 0
SMALL
GASTEIGER

@<TRIPOS>ATOM
      1  C          5.0120    1.7360    0.7420 C.3     1  UNL1        0.1270
      2  C          4.4640    1.0770    1.9410 C.2     1  UNL1        0.3030
      3  O          5.1280    0.1570    2.4910 O.2     1  UNL1       -0.2520
      4  O          3.2270    1.4390    2.4930 O.3     1  UNL1       -0.4810
      5  H          3.1650    1.5700    3.4940 H       1  UNL1        0.2960
      6  C          6.5280    1.8240    0.7780 C.3     1  UNL1        0.0470
      7  C          7.1340    1.0210   -0.3150 C.2     1  UNL1       -0.0470
      8  C          8.4540    1.2230   -0.6940 C.2     1  UNL1        0.0040
      9  C          6.4330    0.0530   -1.0100 C.2     1  UNL1        0.0040
     10  C          9.0410    0.5030   -1.7090 C.2     1  UNL1        0.0000
     11  C          7.0230   -0.6680   -2.0270 C.2     1  UNL1        0.0000
     12  C          8.3320   -0.4600   -2.3970 C.2     1  UNL1        0.0000
@<TRIPOS>BOND
     1    12    11    2
     2    12    10    1
     3    11     9    1
     4    10     8    2
     5     9     7    2
     6     8     7    1
     7     7     6    1
     8     1     6    1
     9     1     2    1
    10     2     3    2
    11     2     4    1
    12     4     5    1
