MODEL 1
REMARK VINA RESULT:      -7.3      0.000      0.000
REMARK SMILES O=C(O)CCc1ccccc1
REMARK SMILES IDX 4 1 2 2 1 3 3 4 5 6 6 7 7 8 11 9 8 10 10 11 9 12
REMARK H PARENT 3 5
REMARK Flexibility Score: inf
ROOT
ATOM      1  C   UNL     1       8.386  -0.709  -2.054  1.00  0.00     0.127 C 
ENDROOT
BRANCH   1   2
ATOM      2  C   UNL     1       8.391  -1.932  -2.876  1.00  0.00     0.303 C 
ATOM      3  O   UNL     1       7.292  -2.422  -3.252  1.00  0.00    -0.252 OA
BRANCH   2   4
ATOM      4  O   UNL     1       9.580  -2.571  -3.257  1.00  0.00    -0.481 OA
ATOM      5  H   UNL     1       9.544  -3.257  -3.999  1.00  0.00     0.296 HD
ENDBRANCH   2   4
ENDBRANCH   1   2
BRANCH   1   6
ATOM      6  C   UNL     1       7.047   0.005  -2.097  1.00  0.00     0.047 C 
BRANCH   6   7
ATOM      7  C   UNL     1       6.467   0.133  -0.735  1.00  0.00    -0.047 A 
ATOM      8  C   UNL     1       6.582  -0.901   0.183  1.00  0.00     0.004 A 
ATOM      9  C   UNL     1       5.785   1.261  -0.314  1.00  0.00     0.004 A 
ATOM     10  C   UNL     1       6.047  -0.817   1.449  1.00  0.00     0.000 A 
ATOM     11  C   UNL     1       5.250   1.343   0.953  1.00  0.00     0.000 A 
ATOM     12  C   UNL     1       5.367   0.312   1.858  1.00  0.00     0.000 A 
ENDBRANCH   6   7
ENDBRANCH   1   6
TORSDOF 4
ENDMDL
MODEL 2
REMARK VINA RESULT:      -7.3      0.038      1.421
REMARK SMILES O=C(O)CCc1ccccc1
REMARK SMILES IDX 4 1 2 2 1 3 3 4 5 6 6 7 7 8 11 9 8 10 10 11 9 12
REMARK H PARENT 3 5
REMARK Flexibility Score: inf
ROOT
ATOM      1  C   UNL     1       8.383  -0.654  -2.119  1.00  0.00     0.127 C 
ENDROOT
BRANCH   1   2
ATOM      2  C   UNL     1       8.387  -1.911  -2.888  1.00  0.00     0.303 C 
ATOM      3  O   UNL     1       7.288  -2.410  -3.251  1.00  0.00    -0.252 OA
BRANCH   2   4
ATOM      4  O   UNL     1       9.574  -2.574  -3.232  1.00  0.00    -0.481 OA
ATOM      5  H   UNL     1      10.149  -2.952  -2.491  1.00  0.00     0.296 HD
ENDBRANCH   2   4
ENDBRANCH   1   2
BRANCH   1   6
ATOM      6  C   UNL     1       7.021   0.017  -2.122  1.00  0.00     0.047 C 
BRANCH   6   7
ATOM      7  C   UNL     1       6.463   0.096  -0.747  1.00  0.00    -0.047 A 
ATOM      8  C   UNL     1       5.778   1.227  -0.326  1.00  0.00     0.004 A 
ATOM      9  C   UNL     1       6.600  -0.924   0.177  1.00  0.00     0.004 A 
ATOM     10  C   UNL     1       5.259   1.336   0.944  1.00  0.00     0.000 A 
ATOM     11  C   UNL     1       6.079  -0.813   1.448  1.00  0.00     0.000 A 
ATOM     12  C   UNL     1       5.402   0.312   1.859  1.00  0.00     0.000 A 
ENDBRANCH   6   7
ENDBRANCH   1   6
TORSDOF 4
ENDMDL
MODEL 3
REMARK VINA RESULT:      -6.6      3.825      4.968
REMARK SMILES O=C(O)CCc1ccccc1
REMARK SMILES IDX 4 1 2 2 1 3 3 4 5 6 6 7 7 8 11 9 8 10 10 11 9 12
REMARK H PARENT 3 5
REMARK Flexibility Score: inf
ROOT
ATOM      1  C   UNL     1       5.460   2.939   0.054  1.00  0.00     0.127 C 
ENDROOT
BRANCH   1   2
ATOM      2  C   UNL     1       6.264   3.889   0.844  1.00  0.00     0.303 C 
ATOM      3  O   UNL     1       6.930   4.775   0.244  1.00  0.00    -0.252 OA
BRANCH   2   4
ATOM      4  O   UNL     1       6.313   3.842   2.245  1.00  0.00    -0.481 OA
ATOM      5  H   UNL     1       5.639   4.383   2.770  1.00  0.00     0.296 HD
ENDBRANCH   2   4
ENDBRANCH   1   2
BRANCH   1   6
ATOM      6  C   UNL     1       4.840   1.855   0.917  1.00  0.00     0.047 C 
BRANCH   6   7
ATOM      7  C   UNL     1       5.688   0.635   0.932  1.00  0.00    -0.047 A 
ATOM      8  C   UNL     1       5.779  -0.150   2.072  1.00  0.00     0.004 A 
ATOM      9  C   UNL     1       6.429   0.226  -0.161  1.00  0.00     0.004 A 
ATOM     10  C   UNL     1       6.564  -1.279   2.121  1.00  0.00     0.000 A 
ATOM     11  C   UNL     1       7.215  -0.906  -0.111  1.00  0.00     0.000 A 
ATOM     12  C   UNL     1       7.300  -1.679   1.024  1.00  0.00     0.000 A 
ENDBRANCH   6   7
ENDBRANCH   1   6
TORSDOF 4
ENDMDL
MODEL 4
REMARK VINA RESULT:      -6.6      1.945      2.606
REMARK SMILES O=C(O)CCc1ccccc1
REMARK SMILES IDX 4 1 2 2 1 3 3 4 5 6 6 7 7 8 11 9 8 10 10 11 9 12
REMARK H PARENT 3 5
REMARK Flexibility Score: inf
ROOT
ATOM      1  C   UNL     1       8.295   0.151  -2.188  1.00  0.00     0.127 C 
ENDROOT
BRANCH   1   2
ATOM      2  C   UNL     1       9.413   0.353  -1.250  1.00  0.00     0.303 C 
ATOM      3  O   UNL     1       9.488  -0.373  -0.222  1.00  0.00    -0.252 OA
BRANCH   2   4
ATOM      4  O   UNL     1      10.401   1.326  -1.462  1.00  0.00    -0.481 OA
ATOM      5  H   UNL     1      10.158   2.298  -1.327  1.00  0.00     0.296 HD
ENDBRANCH   2   4
ENDBRANCH   1   2
BRANCH   1   6
ATOM      6  C   UNL     1       7.164  -0.651  -1.569  1.00  0.00     0.047 C 
BRANCH   6   7
ATOM      7  C   UNL     1       6.377   0.181  -0.622  1.00  0.00    -0.047 A 
ATOM      8  C   UNL     1       5.846   1.399  -1.022  1.00  0.00     0.004 A 
ATOM      9  C   UNL     1       6.142  -0.196   0.688  1.00  0.00     0.004 A 
ATOM     10  C   UNL     1       5.123   2.197  -0.166  1.00  0.00     0.000 A 
ATOM     11  C   UNL     1       5.417   0.604   1.544  1.00  0.00     0.000 A 
ATOM     12  C   UNL     1       4.894   1.812   1.140  1.00  0.00     0.000 A 
ENDBRANCH   6   7
ENDBRANCH   1   6
TORSDOF 4
ENDMDL
MODEL 5
REMARK VINA RESULT:      -6.6      3.275      5.047
REMARK SMILES O=C(O)CCc1ccccc1
REMARK SMILES IDX 4 1 2 2 1 3 3 4 5 6 6 7 7 8 11 9 8 10 10 11 9 12
REMARK H PARENT 3 5
REMARK Flexibility Score: inf
ROOT
ATOM      1  C   UNL     1       5.026   1.810   0.759  1.00  0.00     0.127 C 
ENDROOT
BRANCH   1   2
ATOM      2  C   UNL     1       4.555   1.067   1.940  1.00  0.00     0.303 C 
ATOM      3  O   UNL     1       3.422   1.339   2.424  1.00  0.00    -0.252 OA
BRANCH   2   4
ATOM      4  O   UNL     1       5.322   0.062   2.547  1.00  0.00    -0.481 OA
ATOM      5  H   UNL     1       5.953  -0.479   1.971  1.00  0.00     0.296 HD
ENDBRANCH   2   4
ENDBRANCH   1   2
BRANCH   1   6
ATOM      6  C   UNL     1       6.538   1.945   0.732  1.00  0.00     0.047 C 
BRANCH   6   7
ATOM      7  C   UNL     1       7.129   1.102  -0.341  1.00  0.00    -0.047 A 
ATOM      8  C   UNL     1       8.470   1.220  -0.676  1.00  0.00     0.004 A 
ATOM      9  C   UNL     1       6.391   0.179  -1.059  1.00  0.00     0.004 A 
ATOM     10  C   UNL     1       9.044   0.462  -1.670  1.00  0.00     0.000 A 
ATOM     11  C   UNL     1       6.967  -0.580  -2.055  1.00  0.00     0.000 A 
ATOM     12  C   UNL     1       8.298  -0.456  -2.382  1.00  0.00     0.000 A 
ENDBRANCH   6   7
ENDBRANCH   1   6
TORSDOF 4
ENDMDL
