@<TRIPOS>MOLECULE
/home/cewinharhar/GITHUB/reincatalyze/data/processed/docking_pred/2023-Apr-25-2248_maxeplen10_maxtrainstep1000_exh16_gamma099_lrac3e-4_lrcr1e-3/6b66a19e3843729fbb18dde59d8ef2ce5f9236cc_ligand_2.pdbqt
 12 12 0 0 0
SMALL
GASTEIGER

@<TRIPOS>ATOM
      1  C          8.3860   -0.7090   -2.0540 C.3     1  UNL1        0.1270
      2  C          8.3910   -1.9320   -2.8760 C.2     1  UNL1        0.3030
      3  O          7.2920   -2.4220   -3.2520 O.2     1  UNL1       -0.2520
      4  O          9.5800   -2.5710   -3.2570 O.3     1  UNL1       -0.4810
      5  H          9.5440   -3.2570   -3.9990 H       1  UNL1        0.2960
      6  C          7.0470    0.0050   -2.0970 C.3     1  UNL1        0.0470
      7  C          6.4670    0.1330   -0.7350 C.2     1  UNL1       -0.0470
      8  C          6.5820   -0.9010    0.1830 C.2     1  UNL1        0.0040
      9  C          5.7850    1.2610   -0.3140 C.2     1  UNL1        0.0040
     10  C          6.0470   -0.8170    1.4490 C.2     1  UNL1        0.0000
     11  C          5.2500    1.3430    0.9530 C.2     1  UNL1        0.0000
     12  C          5.3670    0.3120    1.8580 C.2     1  UNL1        0.0000
@<TRIPOS>BOND
     1     5     4    1
     2     4     2    1
     3     3     2    2
     4     2     1    1
     5     6     1    1
     6     6     7    1
     7     7     9    2
     8     7     8    1
     9     9    11    1
    10     8    10    2
    11    11    12    2
    12    10    12    1
