@<TRIPOS>MOLECULE
/home/cewinharhar/GITHUB/reincatalyze/data/processed/docking_pred/2023-Apr-25-2248_maxeplen10_maxtrainstep1000_exh16_gamma099_lrac3e-4_lrcr1e-3/6b66a19e3843729fbb18dde59d8ef2ce5f9236cc_ligand_2.pdbqt
 12 12 0 0 0
SMALL
GASTEIGER

@<TRIPOS>ATOM
      1  C          8.2950    0.1510   -2.1880 C.3     1  UNL1        0.1270
      2  C          9.4130    0.3530   -1.2500 C.2     1  UNL1        0.3030
      3  O          9.4880   -0.3730   -0.2220 O.2     1  UNL1       -0.2520
      4  O         10.4010    1.3260   -1.4620 O.3     1  UNL1       -0.4810
      5  H         10.1580    2.2980   -1.3270 H       1  UNL1        0.2960
      6  C          7.1640   -0.6510   -1.5690 C.3     1  UNL1        0.0470
      7  C          6.3770    0.1810   -0.6220 C.2     1  UNL1       -0.0470
      8  C          5.8460    1.3990   -1.0220 C.2     1  UNL1        0.0040
      9  C          6.1420   -0.1960    0.6880 C.2     1  UNL1        0.0040
     10  C          5.1230    2.1970   -0.1660 C.2     1  UNL1        0.0000
     11  C          5.4170    0.6040    1.5440 C.2     1  UNL1        0.0000
     12  C          4.8940    1.8120    1.1400 C.2     1  UNL1        0.0000
@<TRIPOS>BOND
     1     1     6    1
     2     1     2    1
     3     6     7    1
     4     4     5    1
     5     4     2    1
     6     2     3    2
     7     8     7    2
     8     8    10    1
     9     7     9    1
    10    10    12    2
    11     9    11    2
    12    12    11    1
