@<TRIPOS>MOLECULE
/home/cewinharhar/GITHUB/reincatalyze/data/processed/docking_pred/2023-Apr-25-2248_maxeplen10_maxtrainstep1000_exh16_gamma099_lrac3e-4_lrcr1e-3/6b66a19e3843729fbb18dde59d8ef2ce5f9236cc_ligand_2.pdbqt
 12 12 0 0 0
SMALL
GASTEIGER

@<TRIPOS>ATOM
      1  C          5.0260    1.8100    0.7590 C.3     1  UNL1        0.1270
      2  C          4.5550    1.0670    1.9400 C.2     1  UNL1        0.3030
      3  O          3.4220    1.3390    2.4240 O.2     1  UNL1       -0.2520
      4  O          5.3220    0.0620    2.5470 O.3     1  UNL1       -0.4810
      5  H          5.9530   -0.4790    1.9710 H       1  UNL1        0.2960
      6  C          6.5380    1.9450    0.7320 C.3     1  UNL1        0.0470
      7  C          7.1290    1.1020   -0.3410 C.2     1  UNL1       -0.0470
      8  C          8.4700    1.2200   -0.6760 C.2     1  UNL1        0.0040
      9  C          6.3910    0.1790   -1.0590 C.2     1  UNL1        0.0040
     10  C          9.0440    0.4620   -1.6700 C.2     1  UNL1        0.0000
     11  C          6.9670   -0.5800   -2.0550 C.2     1  UNL1        0.0000
     12  C          8.2980   -0.4560   -2.3820 C.2     1  UNL1        0.0000
@<TRIPOS>BOND
     1    12    11    2
     2    12    10    1
     3    11     9    1
     4    10     8    2
     5     9     7    2
     6     8     7    1
     7     7     6    1
     8     6     1    1
     9     1     2    1
    10     2     3    2
    11     2     4    1
    12     5     4    1
