@<TRIPOS>MOLECULE
/home/cewinharhar/GITHUB/reincatalyze/data/processed/docking_pred/2023-Apr-25-2248_maxeplen10_maxtrainstep1000_exh16_gamma099_lrac3e-4_lrcr1e-3/6b66a19e3843729fbb18dde59d8ef2ce5f9236cc_ligand_2.pdbqt
 12 12 0 0 0
SMALL
GASTEIGER

@<TRIPOS>ATOM
      1  C          5.4600    2.9390    0.0540 C.3     1  UNL1        0.1270
      2  C          6.2640    3.8890    0.8440 C.2     1  UNL1        0.3030
      3  O          6.9300    4.7750    0.2440 O.2     1  UNL1       -0.2520
      4  O          6.3130    3.8420    2.2450 O.3     1  UNL1       -0.4810
      5  H          5.6390    4.3830    2.7700 H       1  UNL1        0.2960
      6  C          4.8400    1.8550    0.9170 C.3     1  UNL1        0.0470
      7  C          5.6880    0.6350    0.9320 C.2     1  UNL1       -0.0470
      8  C          5.7790   -0.1500    2.0720 C.2     1  UNL1        0.0040
      9  C          6.4290    0.2260   -0.1610 C.2     1  UNL1        0.0040
     10  C          6.5640   -1.2790    2.1210 C.2     1  UNL1        0.0000
     11  C          7.2150   -0.9060   -0.1110 C.2     1  UNL1        0.0000
     12  C          7.3000   -1.6790    1.0240 C.2     1  UNL1        0.0000
@<TRIPOS>BOND
     1     9    11    1
     2     9     7    2
     3    11    12    2
     4     1     2    1
     5     1     6    1
     6     3     2    2
     7     2     4    1
     8     6     7    1
     9     7     8    1
    10    12    10    1
    11     8    10    2
    12     4     5    1
