@<TRIPOS>MOLECULE
/home/cewinharhar/GITHUB/reincatalyze/data/processed/docking_pred/2023-Apr-25-2248_maxeplen10_maxtrainstep1000_exh16_gamma099_lrac3e-4_lrcr1e-3/6ceeb54199aca0c96a32aff90fdf9e1d9b8e1f8c_ligand_2.pdbqt
 12 12 0 0 0
SMALL
GASTEIGER

@<TRIPOS>ATOM
      1  C          8.4080   -0.6680   -2.1100 C.3     1  UNL1        0.1270
      2  C          8.4030   -1.9180   -2.8910 C.2     1  UNL1        0.3030
      3  O          7.2990   -2.4190   -3.2370 O.2     1  UNL1       -0.2520
      4  O          9.5870   -2.5710   -3.2640 O.3     1  UNL1       -0.4810
      5  H          9.9910   -2.3600   -4.1660 H       1  UNL1        0.2960
      6  C          7.0570    0.0260   -2.1290 C.3     1  UNL1        0.0470
      7  C          6.4910    0.1270   -0.7590 C.2     1  UNL1       -0.0470
      8  C          6.6260   -0.9210    0.1420 C.2     1  UNL1        0.0040
      9  C          5.8030    1.2400   -0.3130 C.2     1  UNL1        0.0040
     10  C          6.1040   -0.8620    1.4140 C.2     1  UNL1        0.0000
     11  C          5.2810    1.2970    0.9610 C.2     1  UNL1        0.0000
     12  C          5.4180    0.2540    1.8480 C.2     1  UNL1        0.0000
@<TRIPOS>BOND
     1     5     4    1
     2     4     2    1
     3     3     2    2
     4     2     1    1
     5     6     1    1
     6     6     7    1
     7     7     9    2
     8     7     8    1
     9     9    11    1
    10     8    10    2
    11    11    12    2
    12    10    12    1
