MODEL 1
REMARK VINA RESULT:      -7.3      0.000      0.000
REMARK SMILES O=C(O)CCc1ccccc1
REMARK SMILES IDX 4 1 2 2 1 3 3 4 5 6 6 7 7 8 11 9 8 10 10 11 9 12
REMARK H PARENT 3 5
REMARK Flexibility Score: inf
ROOT
ATOM      1  C   UNL     1       8.434  -0.612  -2.159  1.00  0.00     0.127 C 
ENDROOT
BRANCH   1   2
ATOM      2  C   UNL     1       8.469  -1.886  -2.900  1.00  0.00     0.303 C 
ATOM      3  O   UNL     1       9.580  -2.449  -3.097  1.00  0.00    -0.252 OA
BRANCH   2   4
ATOM      4  O   UNL     1       7.307  -2.496  -3.394  1.00  0.00    -0.481 OA
ATOM      5  H   UNL     1       7.362  -3.009  -4.264  1.00  0.00     0.296 HD
ENDBRANCH   2   4
ENDBRANCH   1   2
BRANCH   1   6
ATOM      6  C   UNL     1       7.051   0.013  -2.158  1.00  0.00     0.047 C 
BRANCH   6   7
ATOM      7  C   UNL     1       6.508   0.104  -0.778  1.00  0.00    -0.047 A 
ATOM      8  C   UNL     1       5.859   1.252  -0.346  1.00  0.00     0.004 A 
ATOM      9  C   UNL     1       6.625  -0.923   0.141  1.00  0.00     0.004 A 
ATOM     10  C   UNL     1       5.355   1.371   0.929  1.00  0.00     0.000 A 
ATOM     11  C   UNL     1       6.119  -0.802   1.418  1.00  0.00     0.000 A 
ATOM     12  C   UNL     1       5.478   0.341   1.839  1.00  0.00     0.000 A 
ENDBRANCH   6   7
ENDBRANCH   1   6
TORSDOF 4
ENDMDL
MODEL 2
REMARK VINA RESULT:      -7.3      0.104      1.724
REMARK SMILES O=C(O)CCc1ccccc1
REMARK SMILES IDX 4 1 2 2 1 3 3 4 5 6 6 7 7 8 11 9 8 10 10 11 9 12
REMARK H PARENT 3 5
REMARK Flexibility Score: inf
ROOT
ATOM      1  C   UNL     1       8.408  -0.668  -2.110  1.00  0.00     0.127 C 
ENDROOT
BRANCH   1   2
ATOM      2  C   UNL     1       8.403  -1.918  -2.891  1.00  0.00     0.303 C 
ATOM      3  O   UNL     1       7.299  -2.419  -3.237  1.00  0.00    -0.252 OA
BRANCH   2   4
ATOM      4  O   UNL     1       9.587  -2.571  -3.264  1.00  0.00    -0.481 OA
ATOM      5  H   UNL     1       9.991  -2.360  -4.166  1.00  0.00     0.296 HD
ENDBRANCH   2   4
ENDBRANCH   1   2
BRANCH   1   6
ATOM      6  C   UNL     1       7.057   0.026  -2.129  1.00  0.00     0.047 C 
BRANCH   6   7
ATOM      7  C   UNL     1       6.491   0.127  -0.759  1.00  0.00    -0.047 A 
ATOM      8  C   UNL     1       6.626  -0.921   0.142  1.00  0.00     0.004 A 
ATOM      9  C   UNL     1       5.803   1.240  -0.313  1.00  0.00     0.004 A 
ATOM     10  C   UNL     1       6.104  -0.862   1.414  1.00  0.00     0.000 A 
ATOM     11  C   UNL     1       5.281   1.297   0.961  1.00  0.00     0.000 A 
ATOM     12  C   UNL     1       5.418   0.254   1.848  1.00  0.00     0.000 A 
ENDBRANCH   6   7
ENDBRANCH   1   6
TORSDOF 4
ENDMDL
MODEL 3
REMARK VINA RESULT:      -6.8      3.381      5.073
REMARK SMILES O=C(O)CCc1ccccc1
REMARK SMILES IDX 4 1 2 2 1 3 3 4 5 6 6 7 7 8 11 9 8 10 10 11 9 12
REMARK H PARENT 3 5
REMARK Flexibility Score: inf
ROOT
ATOM      1  C   UNL     1       4.983   1.774   0.699  1.00  0.00     0.127 C 
ENDROOT
BRANCH   1   2
ATOM      2  C   UNL     1       4.473   1.119   1.916  1.00  0.00     0.303 C 
ATOM      3  O   UNL     1       5.173   0.229   2.472  1.00  0.00    -0.252 OA
BRANCH   2   4
ATOM      4  O   UNL     1       3.233   1.451   2.481  1.00  0.00    -0.481 OA
ATOM      5  H   UNL     1       2.639   0.705   2.815  1.00  0.00     0.296 HD
ENDBRANCH   2   4
ENDBRANCH   1   2
BRANCH   1   6
ATOM      6  C   UNL     1       6.494   1.919   0.716  1.00  0.00     0.047 C 
BRANCH   6   7
ATOM      7  C   UNL     1       7.120   1.098  -0.353  1.00  0.00    -0.047 A 
ATOM      8  C   UNL     1       8.475   1.211  -0.632  1.00  0.00     0.004 A 
ATOM      9  C   UNL     1       6.404   0.200  -1.123  1.00  0.00     0.004 A 
ATOM     10  C   UNL     1       9.082   0.473  -1.621  1.00  0.00     0.000 A 
ATOM     11  C   UNL     1       7.013  -0.539  -2.114  1.00  0.00     0.000 A 
ATOM     12  C   UNL     1       8.358  -0.420  -2.385  1.00  0.00     0.000 A 
ENDBRANCH   6   7
ENDBRANCH   1   6
TORSDOF 4
ENDMDL
MODEL 4
REMARK VINA RESULT:      -6.6      1.966      2.663
REMARK SMILES O=C(O)CCc1ccccc1
REMARK SMILES IDX 4 1 2 2 1 3 3 4 5 6 6 7 7 8 11 9 8 10 10 11 9 12
REMARK H PARENT 3 5
REMARK Flexibility Score: inf
ROOT
ATOM      1  C   UNL     1       8.269   0.384  -2.002  1.00  0.00     0.127 C 
ENDROOT
BRANCH   1   2
ATOM      2  C   UNL     1       9.452   0.414  -1.125  1.00  0.00     0.303 C 
ATOM      3  O   UNL     1       9.512  -0.383  -0.150  1.00  0.00    -0.252 OA
BRANCH   2   4
ATOM      4  O   UNL     1      10.519   1.299  -1.337  1.00  0.00    -0.481 OA
ATOM      5  H   UNL     1      10.970   1.304  -2.242  1.00  0.00     0.296 HD
ENDBRANCH   2   4
ENDBRANCH   1   2
BRANCH   1   6
ATOM      6  C   UNL     1       7.182  -0.533  -1.469  1.00  0.00     0.047 C 
BRANCH   6   7
ATOM      7  C   UNL     1       6.381   0.146  -0.418  1.00  0.00    -0.047 A 
ATOM      8  C   UNL     1       6.184  -0.452   0.818  1.00  0.00     0.004 A 
ATOM      9  C   UNL     1       5.789   1.381  -0.609  1.00  0.00     0.004 A 
ATOM     10  C   UNL     1       5.438   0.146   1.809  1.00  0.00     0.000 A 
ATOM     11  C   UNL     1       5.042   1.979   0.384  1.00  0.00     0.000 A 
ATOM     12  C   UNL     1       4.850   1.378   1.608  1.00  0.00     0.000 A 
ENDBRANCH   6   7
ENDBRANCH   1   6
TORSDOF 4
ENDMDL
MODEL 5
REMARK VINA RESULT:      -6.6      1.980      2.979
REMARK SMILES O=C(O)CCc1ccccc1
REMARK SMILES IDX 4 1 2 2 1 3 3 4 5 6 6 7 7 8 11 9 8 10 10 11 9 12
REMARK H PARENT 3 5
REMARK Flexibility Score: inf
ROOT
ATOM      1  C   UNL     1       8.314  -1.698   1.219  1.00  0.00     0.127 C 
ENDROOT
BRANCH   1   2
ATOM      2  C   UNL     1       8.693  -2.924   0.494  1.00  0.00     0.303 C 
ATOM      3  O   UNL     1       9.422  -3.776   1.071  1.00  0.00    -0.252 OA
BRANCH   2   4
ATOM      4  O   UNL     1       8.269  -3.179  -0.818  1.00  0.00    -0.481 OA
ATOM      5  H   UNL     1       8.780  -2.757  -1.582  1.00  0.00     0.296 HD
ENDBRANCH   2   4
ENDBRANCH   1   2
BRANCH   1   6
ATOM      6  C   UNL     1       6.818  -1.615   1.463  1.00  0.00     0.047 C 
BRANCH   6   7
ATOM      7  C   UNL     1       6.255  -0.360   0.899  1.00  0.00    -0.047 A 
ATOM      8  C   UNL     1       6.522   0.009  -0.412  1.00  0.00     0.004 A 
ATOM      9  C   UNL     1       5.459   0.500   1.634  1.00  0.00     0.004 A 
ATOM     10  C   UNL     1       6.025   1.169  -0.959  1.00  0.00     0.000 A 
ATOM     11  C   UNL     1       4.962   1.661   1.084  1.00  0.00     0.000 A 
ATOM     12  C   UNL     1       5.232   2.021  -0.217  1.00  0.00     0.000 A 
ENDBRANCH   6   7
ENDBRANCH   1   6
TORSDOF 4
ENDMDL
