@<TRIPOS>MOLECULE
/home/cewinharhar/GITHUB/reincatalyze/data/processed/docking_pred/2023-Apr-25-2248_maxeplen10_maxtrainstep1000_exh16_gamma099_lrac3e-4_lrcr1e-3/6ceeb54199aca0c96a32aff90fdf9e1d9b8e1f8c_ligand_2.pdbqt
 12 12 0 0 0
SMALL
GASTEIGER

@<TRIPOS>ATOM
      1  C          4.9830    1.7740    0.6990 C.3     1  UNL1        0.1270
      2  C          4.4730    1.1190    1.9160 C.2     1  UNL1        0.3030
      3  O          5.1730    0.2290    2.4720 O.2     1  UNL1       -0.2520
      4  O          3.2330    1.4510    2.4810 O.3     1  UNL1       -0.4810
      5  H          2.6390    0.7050    2.8150 H       1  UNL1        0.2960
      6  C          6.4940    1.9190    0.7160 C.3     1  UNL1        0.0470
      7  C          7.1200    1.0980   -0.3530 C.2     1  UNL1       -0.0470
      8  C          8.4750    1.2110   -0.6320 C.2     1  UNL1        0.0040
      9  C          6.4040    0.2000   -1.1230 C.2     1  UNL1        0.0040
     10  C          9.0820    0.4730   -1.6210 C.2     1  UNL1        0.0000
     11  C          7.0130   -0.5390   -2.1140 C.2     1  UNL1        0.0000
     12  C          8.3580   -0.4200   -2.3850 C.2     1  UNL1        0.0000
@<TRIPOS>BOND
     1    12    11    2
     2    12    10    1
     3    11     9    1
     4    10     8    2
     5     9     7    2
     6     8     7    1
     7     7     6    1
     8     1     6    1
     9     1     2    1
    10     2     3    2
    11     2     4    1
    12     4     5    1
