@<TRIPOS>MOLECULE
/home/cewinharhar/GITHUB/reincatalyze/data/processed/docking_pred/2023-Apr-25-2248_maxeplen10_maxtrainstep1000_exh16_gamma099_lrac3e-4_lrcr1e-3/6ceeb54199aca0c96a32aff90fdf9e1d9b8e1f8c_ligand_2.pdbqt
 12 12 0 0 0
SMALL
GASTEIGER

@<TRIPOS>ATOM
      1  C          8.3140   -1.6980    1.2190 C.3     1  UNL1        0.1270
      2  C          8.6930   -2.9240    0.4940 C.2     1  UNL1        0.3030
      3  O          9.4220   -3.7760    1.0710 O.2     1  UNL1       -0.2520
      4  O          8.2690   -3.1790   -0.8180 O.3     1  UNL1       -0.4810
      5  H          8.7800   -2.7570   -1.5820 H       1  UNL1        0.2960
      6  C          6.8180   -1.6150    1.4630 C.3     1  UNL1        0.0470
      7  C          6.2550   -0.3600    0.8990 C.2     1  UNL1       -0.0470
      8  C          6.5220    0.0090   -0.4120 C.2     1  UNL1        0.0040
      9  C          5.4590    0.5000    1.6340 C.2     1  UNL1        0.0040
     10  C          6.0250    1.1690   -0.9590 C.2     1  UNL1        0.0000
     11  C          4.9620    1.6610    1.0840 C.2     1  UNL1        0.0000
     12  C          5.2320    2.0210   -0.2170 C.2     1  UNL1        0.0000
@<TRIPOS>BOND
     1     5     4    1
     2    10     8    1
     3    10    12    2
     4     4     2    1
     5     8     7    2
     6    12    11    1
     7     2     3    2
     8     2     1    1
     9     7     6    1
    10     7     9    1
    11    11     9    2
    12     1     6    1
