@<TRIPOS>MOLECULE
/home/cewinharhar/GITHUB/reincatalyze/data/processed/docking_pred/2023-Apr-25-2248_maxeplen10_maxtrainstep1000_exh16_gamma099_lrac3e-4_lrcr1e-3/6ceeb54199aca0c96a32aff90fdf9e1d9b8e1f8c_ligand_2.pdbqt
 12 12 0 0 0
SMALL
GASTEIGER

@<TRIPOS>ATOM
      1  C          8.2690    0.3840   -2.0020 C.3     1  UNL1        0.1270
      2  C          9.4520    0.4140   -1.1250 C.2     1  UNL1        0.3030
      3  O          9.5120   -0.3830   -0.1500 O.2     1  UNL1       -0.2520
      4  O         10.5190    1.2990   -1.3370 O.3     1  UNL1       -0.4810
      5  H         10.9700    1.3040   -2.2420 H       1  UNL1        0.2960
      6  C          7.1820   -0.5330   -1.4690 C.3     1  UNL1        0.0470
      7  C          6.3810    0.1460   -0.4180 C.2     1  UNL1       -0.0470
      8  C          6.1840   -0.4520    0.8180 C.2     1  UNL1        0.0040
      9  C          5.7890    1.3810   -0.6090 C.2     1  UNL1        0.0040
     10  C          5.4380    0.1460    1.8090 C.2     1  UNL1        0.0000
     11  C          5.0420    1.9790    0.3840 C.2     1  UNL1        0.0000
     12  C          4.8500    1.3780    1.6080 C.2     1  UNL1        0.0000
@<TRIPOS>BOND
     1     5     4    1
     2     1     6    1
     3     1     2    1
     4     6     7    1
     5     4     2    1
     6     2     3    2
     7     9     7    2
     8     9    11    1
     9     7     8    1
    10    11    12    2
    11     8    10    2
    12    12    10    1
