@<TRIPOS>MOLECULE
/home/cewinharhar/GITHUB/reincatalyze/data/processed/docking_pred/2023-Apr-25-2248_maxeplen10_maxtrainstep1000_exh16_gamma099_lrac3e-4_lrcr1e-3/6d158fe290fd5017d73aec191e5eef2bb245b649_ligand_2.pdbqt
 12 12 0 0 0
SMALL
GASTEIGER

@<TRIPOS>ATOM
      1  C          5.3940    2.9930    0.1000 C.3     1  UNL1        0.1270
      2  C          6.2450    3.9180    0.8680 C.2     1  UNL1        0.3030
      3  O          6.9340    4.7740    0.2490 O.2     1  UNL1       -0.2520
      4  O          6.3160    3.8820    2.2690 O.3     1  UNL1       -0.4810
      5  H          6.7110    3.0630    2.7110 H       1  UNL1        0.2960
      6  C          5.1770    1.6770    0.8250 C.3     1  UNL1        0.0470
      7  C          5.9770    0.5880    0.2050 C.2     1  UNL1       -0.0470
      8  C          6.3150    0.6360   -1.1390 C.2     1  UNL1        0.0040
      9  C          6.4140   -0.5160    0.9140 C.2     1  UNL1        0.0040
     10  C          7.0460   -0.3600   -1.7450 C.2     1  UNL1        0.0000
     11  C          7.1450   -1.5140    0.3060 C.2     1  UNL1        0.0000
     12  C          7.4760   -1.4590   -1.0300 C.2     1  UNL1        0.0000
@<TRIPOS>BOND
     1    10     8    1
     2    10    12    2
     3     8     7    2
     4    12    11    1
     5     1     6    1
     6     1     2    1
     7     7     6    1
     8     7     9    1
     9     3     2    2
    10    11     9    2
    11     2     4    1
    12     4     5    1
