@<TRIPOS>MOLECULE
/home/cewinharhar/GITHUB/reincatalyze/data/processed/docking_pred/2023-Apr-25-2248_maxeplen10_maxtrainstep1000_exh16_gamma099_lrac3e-4_lrcr1e-3/6d158fe290fd5017d73aec191e5eef2bb245b649_ligand_2.pdbqt
 12 12 0 0 0
SMALL
GASTEIGER

@<TRIPOS>ATOM
      1  C          5.0130    1.7780    0.7470 C.3     1  UNL1        0.1270
      2  C          4.4680    1.1030    1.9380 C.2     1  UNL1        0.3030
      3  O          5.1400    0.1860    2.4840 O.2     1  UNL1       -0.2520
      4  O          3.2250    1.4460    2.4890 O.3     1  UNL1       -0.4810
      5  H          2.9450    2.4180    2.4830 H       1  UNL1        0.2960
      6  C          6.5290    1.8610    0.7770 C.3     1  UNL1        0.0470
      7  C          7.1280    1.0590   -0.3210 C.2     1  UNL1       -0.0470
      8  C          8.4610    1.2230   -0.6700 C.2     1  UNL1        0.0040
      9  C          6.4080    0.1300   -1.0480 C.2     1  UNL1        0.0040
     10  C          9.0430    0.5030   -1.6890 C.2     1  UNL1        0.0000
     11  C          6.9920   -0.5910   -2.0680 C.2     1  UNL1        0.0000
     12  C          8.3140   -0.4210   -2.4100 C.2     1  UNL1        0.0000
@<TRIPOS>BOND
     1    12    11    2
     2    12    10    1
     3    11     9    1
     4    10     8    2
     5     9     7    2
     6     8     7    1
     7     7     6    1
     8     1     6    1
     9     1     2    1
    10     2     3    2
    11     2     4    1
    12     5     4    1
