@<TRIPOS>MOLECULE
/home/cewinharhar/GITHUB/reincatalyze/data/processed/docking_pred/2023-Apr-25-2248_maxeplen10_maxtrainstep1000_exh16_gamma099_lrac3e-4_lrcr1e-3/6d158fe290fd5017d73aec191e5eef2bb245b649_ligand_2.pdbqt
 12 12 0 0 0
SMALL
GASTEIGER

@<TRIPOS>ATOM
      1  C          8.3900   -0.6350   -2.1530 C.3     1  UNL1        0.1270
      2  C          8.4330   -1.9030   -2.9020 C.2     1  UNL1        0.3030
      3  O          9.5420   -2.4810   -3.0640 O.2     1  UNL1       -0.2520
      4  O          7.2800   -2.4930   -3.4400 O.3     1  UNL1       -0.4810
      5  H          6.4960   -2.6700   -2.8270 H       1  UNL1        0.2960
      6  C          6.9980   -0.0290   -2.1300 C.3     1  UNL1        0.0470
      7  C          6.4770    0.0550   -0.7400 C.2     1  UNL1       -0.0470
      8  C          6.6270   -1.0100    0.1370 C.2     1  UNL1        0.0040
      9  C          5.8180    1.1690   -0.2540 C.2     1  UNL1        0.0040
     10  C          6.1470   -0.9680    1.4260 C.2     1  UNL1        0.0000
     11  C          5.3380    1.2100    1.0370 C.2     1  UNL1        0.0000
     12  C          5.4890    0.1490    1.9010 C.2     1  UNL1        0.0000
@<TRIPOS>BOND
     1     4     2    1
     2     4     5    1
     3     3     2    2
     4     2     1    1
     5     1     6    1
     6     6     7    1
     7     7     9    2
     8     7     8    1
     9     9    11    1
    10     8    10    2
    11    11    12    2
    12    10    12    1
