MODEL 1
REMARK VINA RESULT:      -7.3      0.000      0.000
REMARK SMILES O=C(O)CCc1ccccc1
REMARK SMILES IDX 4 1 2 2 1 3 3 4 5 6 6 7 7 8 11 9 8 10 10 11 9 12
REMARK H PARENT 3 5
REMARK Flexibility Score: inf
ROOT
ATOM      1  C   UNL     1       8.390  -0.635  -2.153  1.00  0.00     0.127 C 
ENDROOT
BRANCH   1   2
ATOM      2  C   UNL     1       8.433  -1.903  -2.902  1.00  0.00     0.303 C 
ATOM      3  O   UNL     1       9.542  -2.481  -3.064  1.00  0.00    -0.252 OA
BRANCH   2   4
ATOM      4  O   UNL     1       7.280  -2.493  -3.440  1.00  0.00    -0.481 OA
ATOM      5  H   UNL     1       6.496  -2.670  -2.827  1.00  0.00     0.296 HD
ENDBRANCH   2   4
ENDBRANCH   1   2
BRANCH   1   6
ATOM      6  C   UNL     1       6.998  -0.029  -2.130  1.00  0.00     0.047 C 
BRANCH   6   7
ATOM      7  C   UNL     1       6.477   0.055  -0.740  1.00  0.00    -0.047 A 
ATOM      8  C   UNL     1       6.627  -1.010   0.137  1.00  0.00     0.004 A 
ATOM      9  C   UNL     1       5.818   1.169  -0.254  1.00  0.00     0.004 A 
ATOM     10  C   UNL     1       6.147  -0.968   1.426  1.00  0.00     0.000 A 
ATOM     11  C   UNL     1       5.338   1.210   1.037  1.00  0.00     0.000 A 
ATOM     12  C   UNL     1       5.489   0.149   1.901  1.00  0.00     0.000 A 
ENDBRANCH   6   7
ENDBRANCH   1   6
TORSDOF 4
ENDMDL
MODEL 2
REMARK VINA RESULT:      -7.3      0.061      1.422
REMARK SMILES O=C(O)CCc1ccccc1
REMARK SMILES IDX 4 1 2 2 1 3 3 4 5 6 6 7 7 8 11 9 8 10 10 11 9 12
REMARK H PARENT 3 5
REMARK Flexibility Score: inf
ROOT
ATOM      1  C   UNL     1       8.414  -0.607  -2.198  1.00  0.00     0.127 C 
ENDROOT
BRANCH   1   2
ATOM      2  C   UNL     1       8.452  -1.892  -2.917  1.00  0.00     0.303 C 
ATOM      3  O   UNL     1       9.561  -2.470  -3.080  1.00  0.00    -0.252 OA
BRANCH   2   4
ATOM      4  O   UNL     1       7.295  -2.498  -3.428  1.00  0.00    -0.481 OA
ATOM      5  H   UNL     1       7.378  -3.406  -3.866  1.00  0.00     0.296 HD
ENDBRANCH   2   4
ENDBRANCH   1   2
BRANCH   1   6
ATOM      6  C   UNL     1       7.020  -0.006  -2.170  1.00  0.00     0.047 C 
BRANCH   6   7
ATOM      7  C   UNL     1       6.493   0.053  -0.782  1.00  0.00    -0.047 A 
ATOM      8  C   UNL     1       5.847   1.190  -0.318  1.00  0.00     0.004 A 
ATOM      9  C   UNL     1       6.622  -0.994   0.113  1.00  0.00     0.004 A 
ATOM     10  C   UNL     1       5.357   1.280   0.965  1.00  0.00     0.000 A 
ATOM     11  C   UNL     1       6.130  -0.902   1.397  1.00  0.00     0.000 A 
ATOM     12  C   UNL     1       5.492   0.229   1.851  1.00  0.00     0.000 A 
ENDBRANCH   6   7
ENDBRANCH   1   6
TORSDOF 4
ENDMDL
MODEL 3
REMARK VINA RESULT:      -6.8      3.403      5.098
REMARK SMILES O=C(O)CCc1ccccc1
REMARK SMILES IDX 4 1 2 2 1 3 3 4 5 6 6 7 7 8 11 9 8 10 10 11 9 12
REMARK H PARENT 3 5
REMARK Flexibility Score: inf
ROOT
ATOM      1  C   UNL     1       5.013   1.778   0.747  1.00  0.00     0.127 C 
ENDROOT
BRANCH   1   2
ATOM      2  C   UNL     1       4.468   1.103   1.938  1.00  0.00     0.303 C 
ATOM      3  O   UNL     1       5.140   0.186   2.484  1.00  0.00    -0.252 OA
BRANCH   2   4
ATOM      4  O   UNL     1       3.225   1.446   2.489  1.00  0.00    -0.481 OA
ATOM      5  H   UNL     1       2.945   2.418   2.483  1.00  0.00     0.296 HD
ENDBRANCH   2   4
ENDBRANCH   1   2
BRANCH   1   6
ATOM      6  C   UNL     1       6.529   1.861   0.777  1.00  0.00     0.047 C 
BRANCH   6   7
ATOM      7  C   UNL     1       7.128   1.059  -0.321  1.00  0.00    -0.047 A 
ATOM      8  C   UNL     1       8.461   1.223  -0.670  1.00  0.00     0.004 A 
ATOM      9  C   UNL     1       6.408   0.130  -1.048  1.00  0.00     0.004 A 
ATOM     10  C   UNL     1       9.043   0.503  -1.689  1.00  0.00     0.000 A 
ATOM     11  C   UNL     1       6.992  -0.591  -2.068  1.00  0.00     0.000 A 
ATOM     12  C   UNL     1       8.314  -0.421  -2.410  1.00  0.00     0.000 A 
ENDBRANCH   6   7
ENDBRANCH   1   6
TORSDOF 4
ENDMDL
MODEL 4
REMARK VINA RESULT:      -6.7      1.962      2.698
REMARK SMILES O=C(O)CCc1ccccc1
REMARK SMILES IDX 4 1 2 2 1 3 3 4 5 6 6 7 7 8 11 9 8 10 10 11 9 12
REMARK H PARENT 3 5
REMARK Flexibility Score: inf
ROOT
ATOM      1  C   UNL     1       8.295   0.267  -2.175  1.00  0.00     0.127 C 
ENDROOT
BRANCH   1   2
ATOM      2  C   UNL     1       9.423   0.371  -1.233  1.00  0.00     0.303 C 
ATOM      3  O   UNL     1       9.457  -0.393  -0.230  1.00  0.00    -0.252 OA
BRANCH   2   4
ATOM      4  O   UNL     1      10.466   1.292  -1.413  1.00  0.00    -0.481 OA
ATOM      5  H   UNL     1      11.161   1.384  -0.685  1.00  0.00     0.296 HD
ENDBRANCH   2   4
ENDBRANCH   1   2
BRANCH   1   6
ATOM      6  C   UNL     1       7.150  -0.554  -1.610  1.00  0.00     0.047 C 
BRANCH   6   7
ATOM      7  C   UNL     1       6.359   0.237  -0.632  1.00  0.00    -0.047 A 
ATOM      8  C   UNL     1       5.815   1.463  -0.988  1.00  0.00     0.004 A 
ATOM      9  C   UNL     1       6.132  -0.187   0.665  1.00  0.00     0.004 A 
ATOM     10  C   UNL     1       5.087   2.224  -0.102  1.00  0.00     0.000 A 
ATOM     11  C   UNL     1       5.402   0.576   1.551  1.00  0.00     0.000 A 
ATOM     12  C   UNL     1       4.867   1.792   1.190  1.00  0.00     0.000 A 
ENDBRANCH   6   7
ENDBRANCH   1   6
TORSDOF 4
ENDMDL
MODEL 5
REMARK VINA RESULT:      -6.6      3.784      5.114
REMARK SMILES O=C(O)CCc1ccccc1
REMARK SMILES IDX 4 1 2 2 1 3 3 4 5 6 6 7 7 8 11 9 8 10 10 11 9 12
REMARK H PARENT 3 5
REMARK Flexibility Score: inf
ROOT
ATOM      1  C   UNL     1       5.394   2.993   0.100  1.00  0.00     0.127 C 
ENDROOT
BRANCH   1   2
ATOM      2  C   UNL     1       6.245   3.918   0.868  1.00  0.00     0.303 C 
ATOM      3  O   UNL     1       6.934   4.774   0.249  1.00  0.00    -0.252 OA
BRANCH   2   4
ATOM      4  O   UNL     1       6.316   3.882   2.269  1.00  0.00    -0.481 OA
ATOM      5  H   UNL     1       6.711   3.063   2.711  1.00  0.00     0.296 HD
ENDBRANCH   2   4
ENDBRANCH   1   2
BRANCH   1   6
ATOM      6  C   UNL     1       5.177   1.677   0.825  1.00  0.00     0.047 C 
BRANCH   6   7
ATOM      7  C   UNL     1       5.977   0.588   0.205  1.00  0.00    -0.047 A 
ATOM      8  C   UNL     1       6.315   0.636  -1.139  1.00  0.00     0.004 A 
ATOM      9  C   UNL     1       6.414  -0.516   0.914  1.00  0.00     0.004 A 
ATOM     10  C   UNL     1       7.046  -0.360  -1.745  1.00  0.00     0.000 A 
ATOM     11  C   UNL     1       7.145  -1.514   0.306  1.00  0.00     0.000 A 
ATOM     12  C   UNL     1       7.476  -1.459  -1.030  1.00  0.00     0.000 A 
ENDBRANCH   6   7
ENDBRANCH   1   6
TORSDOF 4
ENDMDL
