@<TRIPOS>MOLECULE
/home/cewinharhar/GITHUB/reincatalyze/data/processed/docking_pred/2023-Apr-25-2248_maxeplen10_maxtrainstep1000_exh16_gamma099_lrac3e-4_lrcr1e-3/6d158fe290fd5017d73aec191e5eef2bb245b649_ligand_2.pdbqt
 12 12 0 0 0
SMALL
GASTEIGER

@<TRIPOS>ATOM
      1  C          8.2950    0.2670   -2.1750 C.3     1  UNL1        0.1270
      2  C          9.4230    0.3710   -1.2330 C.2     1  UNL1        0.3030
      3  O          9.4570   -0.3930   -0.2300 O.2     1  UNL1       -0.2520
      4  O         10.4660    1.2920   -1.4130 O.3     1  UNL1       -0.4810
      5  H         11.1610    1.3840   -0.6850 H       1  UNL1        0.2960
      6  C          7.1500   -0.5540   -1.6100 C.3     1  UNL1        0.0470
      7  C          6.3590    0.2370   -0.6320 C.2     1  UNL1       -0.0470
      8  C          5.8150    1.4630   -0.9880 C.2     1  UNL1        0.0040
      9  C          6.1320   -0.1870    0.6650 C.2     1  UNL1        0.0040
     10  C          5.0870    2.2240   -0.1020 C.2     1  UNL1        0.0000
     11  C          5.4020    0.5760    1.5510 C.2     1  UNL1        0.0000
     12  C          4.8670    1.7920    1.1900 C.2     1  UNL1        0.0000
@<TRIPOS>BOND
     1     1     6    1
     2     1     2    1
     3     6     7    1
     4     4     2    1
     5     4     5    1
     6     2     3    2
     7     8     7    2
     8     8    10    1
     9     7     9    1
    10    10    12    2
    11     9    11    2
    12    12    11    1
