@<TRIPOS>MOLECULE
/home/cewinharhar/GITHUB/reincatalyze/data/processed/docking_pred/2023-Apr-25-2248_maxeplen10_maxtrainstep1000_exh16_gamma099_lrac3e-4_lrcr1e-3/6d158fe290fd5017d73aec191e5eef2bb245b649_ligand_2.pdbqt
 12 12 0 0 0
SMALL
GASTEIGER

@<TRIPOS>ATOM
      1  C          8.4140   -0.6070   -2.1980 C.3     1  UNL1        0.1270
      2  C          8.4520   -1.8920   -2.9170 C.2     1  UNL1        0.3030
      3  O          9.5610   -2.4700   -3.0800 O.2     1  UNL1       -0.2520
      4  O          7.2950   -2.4980   -3.4280 O.3     1  UNL1       -0.4810
      5  H          7.3780   -3.4060   -3.8660 H       1  UNL1        0.2960
      6  C          7.0200   -0.0060   -2.1700 C.3     1  UNL1        0.0470
      7  C          6.4930    0.0530   -0.7820 C.2     1  UNL1       -0.0470
      8  C          5.8470    1.1900   -0.3180 C.2     1  UNL1        0.0040
      9  C          6.6220   -0.9940    0.1130 C.2     1  UNL1        0.0040
     10  C          5.3570    1.2800    0.9650 C.2     1  UNL1        0.0000
     11  C          6.1300   -0.9020    1.3970 C.2     1  UNL1        0.0000
     12  C          5.4920    0.2290    1.8510 C.2     1  UNL1        0.0000
@<TRIPOS>BOND
     1     5     4    1
     2     4     2    1
     3     3     2    2
     4     2     1    1
     5     1     6    1
     6     6     7    1
     7     7     8    2
     8     7     9    1
     9     8    10    1
    10     9    11    2
    11    10    12    2
    12    11    12    1
