@<TRIPOS>MOLECULE
/home/cewinharhar/GITHUB/reincatalyze/data/processed/docking_pred/2023-Apr-25-2248_maxeplen10_maxtrainstep1000_exh16_gamma099_lrac3e-4_lrcr1e-3/6dc168e099aae66a1c19408847f7f9495b2b5216_ligand_2.pdbqt
 12 12 0 0 0
SMALL
GASTEIGER

@<TRIPOS>ATOM
      1  C          4.9970    1.7790    0.7430 C.3     1  UNL1        0.1270
      2  C          4.4590    1.1080    1.9390 C.2     1  UNL1        0.3030
      3  O          5.1360    0.1950    2.4860 O.2     1  UNL1       -0.2520
      4  O          3.2170    1.4500    2.4940 O.3     1  UNL1       -0.4810
      5  H          3.2010    1.9440    3.3760 H       1  UNL1        0.2960
      6  C          6.5110    1.8780    0.7730 C.3     1  UNL1        0.0470
      7  C          7.1190    1.0760   -0.3220 C.2     1  UNL1       -0.0470
      8  C          8.4590    1.2270   -0.6500 C.2     1  UNL1        0.0040
      9  C          6.3990    0.1610   -1.0680 C.2     1  UNL1        0.0040
     10  C          9.0480    0.5090   -1.6650 C.2     1  UNL1        0.0000
     11  C          6.9900   -0.5580   -2.0840 C.2     1  UNL1        0.0000
     12  C          8.3200   -0.4020   -2.4040 C.2     1  UNL1        0.0000
@<TRIPOS>BOND
     1    12    11    2
     2    12    10    1
     3    11     9    1
     4    10     8    2
     5     9     7    2
     6     8     7    1
     7     7     6    1
     8     1     6    1
     9     1     2    1
    10     2     3    2
    11     2     4    1
    12     4     5    1
