@<TRIPOS>MOLECULE
/home/cewinharhar/GITHUB/reincatalyze/data/processed/docking_pred/2023-Apr-25-2248_maxeplen10_maxtrainstep1000_exh16_gamma099_lrac3e-4_lrcr1e-3/6dc168e099aae66a1c19408847f7f9495b2b5216_ligand_2.pdbqt
 12 12 0 0 0
SMALL
GASTEIGER

@<TRIPOS>ATOM
      1  C          8.1530   -0.2190   -2.6070 C.3     1  UNL1        0.1270
      2  C          8.3520   -1.6350   -2.9600 C.2     1  UNL1        0.3030
      3  O          9.5040   -2.1370   -2.8560 O.2     1  UNL1       -0.2520
      4  O          7.3010   -2.4490   -3.4090 O.3     1  UNL1       -0.4810
      5  H          6.3770   -2.0460   -3.4870 H       1  UNL1        0.2960
      6  C          8.6890    0.1080   -1.2240 C.3     1  UNL1        0.0470
      7  C          7.5820    0.2260   -0.2390 C.2     1  UNL1       -0.0470
      8  C          6.5130    1.0790   -0.4740 C.2     1  UNL1        0.0040
      9  C          7.5580   -0.4820    0.9490 C.2     1  UNL1        0.0040
     10  C          5.4790    1.2180    0.4230 C.2     1  UNL1        0.0000
     11  C          6.5220   -0.3410    1.8460 C.2     1  UNL1        0.0000
     12  C          5.4650    0.5070    1.6060 C.2     1  UNL1        0.0000
@<TRIPOS>BOND
     1     5     4    1
     2     4     2    1
     3     2     3    2
     4     2     1    1
     5     1     6    1
     6     6     7    1
     7     8     7    2
     8     8    10    1
     9     7     9    1
    10    10    12    2
    11     9    11    2
    12    12    11    1
