@<TRIPOS>MOLECULE
/home/cewinharhar/GITHUB/reincatalyze/data/processed/docking_pred/2023-Apr-25-2248_maxeplen10_maxtrainstep1000_exh16_gamma099_lrac3e-4_lrcr1e-3/6dc168e099aae66a1c19408847f7f9495b2b5216_ligand_2.pdbqt
 12 12 0 0 0
SMALL
GASTEIGER

@<TRIPOS>ATOM
      1  C          8.2900   -1.6800    1.1580 C.3     1  UNL1        0.1270
      2  C          8.6870   -2.9190    0.4660 C.2     1  UNL1        0.3030
      3  O          9.4160   -3.7510    1.0710 O.2     1  UNL1       -0.2520
      4  O          8.2800   -3.2060   -0.8450 O.3     1  UNL1       -0.4810
      5  H          7.3470   -2.9410   -1.1300 H       1  UNL1        0.2960
      6  C          6.7920   -1.6070    1.3900 C.3     1  UNL1        0.0470
      7  C          6.2300   -0.3400    0.8520 C.2     1  UNL1       -0.0470
      8  C          6.4750    0.0410   -0.4590 C.2     1  UNL1        0.0040
      9  C          5.4570    0.5180    1.6120 C.2     1  UNL1        0.0040
     10  C          5.9780    1.2130   -0.9840 C.2     1  UNL1        0.0000
     11  C          4.9600    1.6910    1.0850 C.2     1  UNL1        0.0000
     12  C          5.2080    2.0630   -0.2170 C.2     1  UNL1        0.0000
@<TRIPOS>BOND
     1     5     4    1
     2    10     8    1
     3    10    12    2
     4     4     2    1
     5     8     7    2
     6    12    11    1
     7     2     3    2
     8     2     1    1
     9     7     6    1
    10     7     9    1
    11    11     9    2
    12     1     6    1
