@<TRIPOS>MOLECULE
/home/cewinharhar/GITHUB/reincatalyze/data/processed/docking_pred/2023-Apr-25-2248_maxeplen10_maxtrainstep1000_exh16_gamma099_lrac3e-4_lrcr1e-3/6dc168e099aae66a1c19408847f7f9495b2b5216_ligand_2.pdbqt
 12 12 0 0 0
SMALL
GASTEIGER

@<TRIPOS>ATOM
      1  C          8.3870   -0.6620   -2.1010 C.3     1  UNL1        0.1270
      2  C          8.3850   -1.9150   -2.8760 C.2     1  UNL1        0.3030
      3  O          7.2830   -2.4060   -3.2440 O.2     1  UNL1       -0.2520
      4  O          9.5690   -2.5820   -3.2220 O.3     1  UNL1       -0.4810
      5  H         10.1420   -2.9650   -2.4830 H       1  UNL1        0.2960
      6  C          7.0330    0.0250   -2.1170 C.3     1  UNL1        0.0470
      7  C          6.4610    0.1080   -0.7480 C.2     1  UNL1       -0.0470
      8  C          5.7670    1.2370   -0.3380 C.2     1  UNL1        0.0040
      9  C          6.5930   -0.9080    0.1810 C.2     1  UNL1        0.0040
     10  C          5.2350    1.3480    0.9260 C.2     1  UNL1        0.0000
     11  C          6.0590   -0.7950    1.4470 C.2     1  UNL1        0.0000
     12  C          5.3730    0.3290    1.8460 C.2     1  UNL1        0.0000
@<TRIPOS>BOND
     1     3     2    2
     2     4     2    1
     3     4     5    1
     4     2     1    1
     5     6     1    1
     6     6     7    1
     7     7     8    2
     8     7     9    1
     9     8    10    1
    10     9    11    2
    11    10    12    2
    12    11    12    1
