@<TRIPOS>MOLECULE
/home/cewinharhar/GITHUB/reincatalyze/data/processed/docking_pred/2023-Apr-25-2248_maxeplen10_maxtrainstep1000_exh16_gamma099_lrac3e-4_lrcr1e-3/6dc168e099aae66a1c19408847f7f9495b2b5216_ligand_2.pdbqt
 12 12 0 0 0
SMALL
GASTEIGER

@<TRIPOS>ATOM
      1  C          8.4190   -0.6260   -2.1800 C.3     1  UNL1        0.1270
      2  C          8.4460   -1.9030   -2.9150 C.2     1  UNL1        0.3030
      3  O          9.5500   -2.4870   -3.0870 O.2     1  UNL1       -0.2520
      4  O          7.2830   -2.4940   -3.4290 O.3     1  UNL1       -0.4810
      5  H          6.9630   -3.3640   -3.0240 H       1  UNL1        0.2960
      6  C          7.0320   -0.0090   -2.1520 C.3     1  UNL1        0.0470
      7  C          6.5060    0.0560   -0.7630 C.2     1  UNL1       -0.0470
      8  C          6.6620   -1.0170    0.1030 C.2     1  UNL1        0.0040
      9  C          5.8370    1.1590   -0.2670 C.2     1  UNL1        0.0040
     10  C          6.1780   -0.9920    1.3910 C.2     1  UNL1        0.0000
     11  C          5.3520    1.1830    1.0230 C.2     1  UNL1        0.0000
     12  C          5.5100    0.1140    1.8760 C.2     1  UNL1        0.0000
@<TRIPOS>BOND
     1     4     5    1
     2     4     2    1
     3     3     2    2
     4     2     1    1
     5     1     6    1
     6     6     7    1
     7     7     9    2
     8     7     8    1
     9     9    11    1
    10     8    10    2
    11    11    12    2
    12    10    12    1
