MODEL 1
REMARK VINA RESULT:      -7.3      0.000      0.000
REMARK SMILES O=C(O)CCc1ccccc1
REMARK SMILES IDX 4 1 2 2 1 3 3 4 5 6 6 7 7 8 11 9 8 10 10 11 9 12
REMARK H PARENT 3 5
REMARK Flexibility Score: inf
ROOT
ATOM      1  C   UNL     1       8.419  -0.626  -2.180  1.00  0.00     0.127 C 
ENDROOT
BRANCH   1   2
ATOM      2  C   UNL     1       8.446  -1.903  -2.915  1.00  0.00     0.303 C 
ATOM      3  O   UNL     1       9.550  -2.487  -3.087  1.00  0.00    -0.252 OA
BRANCH   2   4
ATOM      4  O   UNL     1       7.283  -2.494  -3.429  1.00  0.00    -0.481 OA
ATOM      5  H   UNL     1       6.963  -3.364  -3.024  1.00  0.00     0.296 HD
ENDBRANCH   2   4
ENDBRANCH   1   2
BRANCH   1   6
ATOM      6  C   UNL     1       7.032  -0.009  -2.152  1.00  0.00     0.047 C 
BRANCH   6   7
ATOM      7  C   UNL     1       6.506   0.056  -0.763  1.00  0.00    -0.047 A 
ATOM      8  C   UNL     1       6.662  -1.017   0.103  1.00  0.00     0.004 A 
ATOM      9  C   UNL     1       5.837   1.159  -0.267  1.00  0.00     0.004 A 
ATOM     10  C   UNL     1       6.178  -0.992   1.391  1.00  0.00     0.000 A 
ATOM     11  C   UNL     1       5.352   1.183   1.023  1.00  0.00     0.000 A 
ATOM     12  C   UNL     1       5.510   0.114   1.876  1.00  0.00     0.000 A 
ENDBRANCH   6   7
ENDBRANCH   1   6
TORSDOF 4
ENDMDL
MODEL 2
REMARK VINA RESULT:      -7.3      0.166      1.728
REMARK SMILES O=C(O)CCc1ccccc1
REMARK SMILES IDX 4 1 2 2 1 3 3 4 5 6 6 7 7 8 11 9 8 10 10 11 9 12
REMARK H PARENT 3 5
REMARK Flexibility Score: inf
ROOT
ATOM      1  C   UNL     1       8.387  -0.662  -2.101  1.00  0.00     0.127 C 
ENDROOT
BRANCH   1   2
ATOM      2  C   UNL     1       8.385  -1.915  -2.876  1.00  0.00     0.303 C 
ATOM      3  O   UNL     1       7.283  -2.406  -3.244  1.00  0.00    -0.252 OA
BRANCH   2   4
ATOM      4  O   UNL     1       9.569  -2.582  -3.222  1.00  0.00    -0.481 OA
ATOM      5  H   UNL     1      10.142  -2.965  -2.483  1.00  0.00     0.296 HD
ENDBRANCH   2   4
ENDBRANCH   1   2
BRANCH   1   6
ATOM      6  C   UNL     1       7.033   0.025  -2.117  1.00  0.00     0.047 C 
BRANCH   6   7
ATOM      7  C   UNL     1       6.461   0.108  -0.748  1.00  0.00    -0.047 A 
ATOM      8  C   UNL     1       5.767   1.237  -0.338  1.00  0.00     0.004 A 
ATOM      9  C   UNL     1       6.593  -0.908   0.181  1.00  0.00     0.004 A 
ATOM     10  C   UNL     1       5.235   1.348   0.926  1.00  0.00     0.000 A 
ATOM     11  C   UNL     1       6.059  -0.795   1.447  1.00  0.00     0.000 A 
ATOM     12  C   UNL     1       5.373   0.329   1.846  1.00  0.00     0.000 A 
ENDBRANCH   6   7
ENDBRANCH   1   6
TORSDOF 4
ENDMDL
MODEL 3
REMARK VINA RESULT:      -6.9      0.817      1.611
REMARK SMILES O=C(O)CCc1ccccc1
REMARK SMILES IDX 4 1 2 2 1 3 3 4 5 6 6 7 7 8 11 9 8 10 10 11 9 12
REMARK H PARENT 3 5
REMARK Flexibility Score: inf
ROOT
ATOM      1  C   UNL     1       8.153  -0.219  -2.607  1.00  0.00     0.127 C 
ENDROOT
BRANCH   1   2
ATOM      2  C   UNL     1       8.352  -1.635  -2.960  1.00  0.00     0.303 C 
ATOM      3  O   UNL     1       9.504  -2.137  -2.856  1.00  0.00    -0.252 OA
BRANCH   2   4
ATOM      4  O   UNL     1       7.301  -2.449  -3.409  1.00  0.00    -0.481 OA
ATOM      5  H   UNL     1       6.377  -2.046  -3.487  1.00  0.00     0.296 HD
ENDBRANCH   2   4
ENDBRANCH   1   2
BRANCH   1   6
ATOM      6  C   UNL     1       8.689   0.108  -1.224  1.00  0.00     0.047 C 
BRANCH   6   7
ATOM      7  C   UNL     1       7.582   0.226  -0.239  1.00  0.00    -0.047 A 
ATOM      8  C   UNL     1       6.513   1.079  -0.474  1.00  0.00     0.004 A 
ATOM      9  C   UNL     1       7.558  -0.482   0.949  1.00  0.00     0.004 A 
ATOM     10  C   UNL     1       5.479   1.218   0.423  1.00  0.00     0.000 A 
ATOM     11  C   UNL     1       6.522  -0.341   1.846  1.00  0.00     0.000 A 
ATOM     12  C   UNL     1       5.465   0.507   1.606  1.00  0.00     0.000 A 
ENDBRANCH   6   7
ENDBRANCH   1   6
TORSDOF 4
ENDMDL
MODEL 4
REMARK VINA RESULT:      -6.8      3.403      5.098
REMARK SMILES O=C(O)CCc1ccccc1
REMARK SMILES IDX 4 1 2 2 1 3 3 4 5 6 6 7 7 8 11 9 8 10 10 11 9 12
REMARK H PARENT 3 5
REMARK Flexibility Score: inf
ROOT
ATOM      1  C   UNL     1       4.997   1.779   0.743  1.00  0.00     0.127 C 
ENDROOT
BRANCH   1   2
ATOM      2  C   UNL     1       4.459   1.108   1.939  1.00  0.00     0.303 C 
ATOM      3  O   UNL     1       5.136   0.195   2.486  1.00  0.00    -0.252 OA
BRANCH   2   4
ATOM      4  O   UNL     1       3.217   1.450   2.494  1.00  0.00    -0.481 OA
ATOM      5  H   UNL     1       3.201   1.944   3.376  1.00  0.00     0.296 HD
ENDBRANCH   2   4
ENDBRANCH   1   2
BRANCH   1   6
ATOM      6  C   UNL     1       6.511   1.878   0.773  1.00  0.00     0.047 C 
BRANCH   6   7
ATOM      7  C   UNL     1       7.119   1.076  -0.322  1.00  0.00    -0.047 A 
ATOM      8  C   UNL     1       8.459   1.227  -0.650  1.00  0.00     0.004 A 
ATOM      9  C   UNL     1       6.399   0.161  -1.068  1.00  0.00     0.004 A 
ATOM     10  C   UNL     1       9.048   0.509  -1.665  1.00  0.00     0.000 A 
ATOM     11  C   UNL     1       6.990  -0.558  -2.084  1.00  0.00     0.000 A 
ATOM     12  C   UNL     1       8.320  -0.402  -2.404  1.00  0.00     0.000 A 
ENDBRANCH   6   7
ENDBRANCH   1   6
TORSDOF 4
ENDMDL
MODEL 5
REMARK VINA RESULT:      -6.6      1.956      2.934
REMARK SMILES O=C(O)CCc1ccccc1
REMARK SMILES IDX 4 1 2 2 1 3 3 4 5 6 6 7 7 8 11 9 8 10 10 11 9 12
REMARK H PARENT 3 5
REMARK Flexibility Score: inf
ROOT
ATOM      1  C   UNL     1       8.290  -1.680   1.158  1.00  0.00     0.127 C 
ENDROOT
BRANCH   1   2
ATOM      2  C   UNL     1       8.687  -2.919   0.466  1.00  0.00     0.303 C 
ATOM      3  O   UNL     1       9.416  -3.751   1.071  1.00  0.00    -0.252 OA
BRANCH   2   4
ATOM      4  O   UNL     1       8.280  -3.206  -0.845  1.00  0.00    -0.481 OA
ATOM      5  H   UNL     1       7.347  -2.941  -1.130  1.00  0.00     0.296 HD
ENDBRANCH   2   4
ENDBRANCH   1   2
BRANCH   1   6
ATOM      6  C   UNL     1       6.792  -1.607   1.390  1.00  0.00     0.047 C 
BRANCH   6   7
ATOM      7  C   UNL     1       6.230  -0.340   0.852  1.00  0.00    -0.047 A 
ATOM      8  C   UNL     1       6.475   0.041  -0.459  1.00  0.00     0.004 A 
ATOM      9  C   UNL     1       5.457   0.518   1.612  1.00  0.00     0.004 A 
ATOM     10  C   UNL     1       5.978   1.213  -0.984  1.00  0.00     0.000 A 
ATOM     11  C   UNL     1       4.960   1.691   1.085  1.00  0.00     0.000 A 
ATOM     12  C   UNL     1       5.208   2.063  -0.217  1.00  0.00     0.000 A 
ENDBRANCH   6   7
ENDBRANCH   1   6
TORSDOF 4
ENDMDL
