@<TRIPOS>MOLECULE
/home/cewinharhar/GITHUB/reincatalyze/data/processed/docking_pred/2023-Apr-25-2248_maxeplen10_maxtrainstep1000_exh16_gamma099_lrac3e-4_lrcr1e-3/6e01533e6265e20f53eb8495178921d7241890ed_ligand_2.pdbqt
 12 12 0 0 0
SMALL
GASTEIGER

@<TRIPOS>ATOM
      1  C          8.2830    0.2860   -1.9900 C.3     1  UNL1        0.1270
      2  C          9.4500    0.3870   -1.0960 C.2     1  UNL1        0.3030
      3  O          9.5160   -0.3660   -0.0870 O.2     1  UNL1       -0.2520
      4  O         10.4940    1.2940   -1.3290 O.3     1  UNL1       -0.4810
      5  H         10.6400    1.6320   -2.2710 H       1  UNL1        0.2960
      6  C          7.1890   -0.5910   -1.4070 C.3     1  UNL1        0.0470
      7  C          6.3670    0.1650   -0.4260 C.2     1  UNL1       -0.0470
      8  C          6.1240   -0.3510    0.8390 C.2     1  UNL1        0.0040
      9  C          5.8000    1.3930   -0.7130 C.2     1  UNL1        0.0040
     10  C          5.3580    0.3190    1.7660 C.2     1  UNL1        0.0000
     11  C          5.0340    2.0630    0.2160 C.2     1  UNL1        0.0000
     12  C          4.7960    1.5450    1.4690 C.2     1  UNL1        0.0000
@<TRIPOS>BOND
     1     5     4    1
     2     1     6    1
     3     1     2    1
     4     6     7    1
     5     4     2    1
     6     2     3    2
     7     9     7    2
     8     9    11    1
     9     7     8    1
    10    11    12    2
    11     8    10    2
    12    12    10    1
