@<TRIPOS>MOLECULE
/home/cewinharhar/GITHUB/reincatalyze/data/processed/docking_pred/2023-Apr-25-2248_maxeplen10_maxtrainstep1000_exh16_gamma099_lrac3e-4_lrcr1e-3/6e01533e6265e20f53eb8495178921d7241890ed_ligand_2.pdbqt
 12 12 0 0 0
SMALL
GASTEIGER

@<TRIPOS>ATOM
      1  C          8.3880   -0.6120   -2.1860 C.3     1  UNL1        0.1270
      2  C          8.4270   -1.8930   -2.9140 C.2     1  UNL1        0.3030
      3  O          9.5340   -2.4760   -3.0670 O.2     1  UNL1       -0.2520
      4  O          7.2730   -2.4880   -3.4420 O.3     1  UNL1       -0.4810
      5  H          7.1860   -3.4950   -3.4010 H       1  UNL1        0.2960
      6  C          6.9930   -0.0120   -2.1550 C.3     1  UNL1        0.0470
      7  C          6.4790    0.0690   -0.7640 C.2     1  UNL1       -0.0470
      8  C          6.6190   -1.0030    0.1060 C.2     1  UNL1        0.0040
      9  C          5.8350    1.1880   -0.2670 C.2     1  UNL1        0.0040
     10  C          6.1440   -0.9630    1.3970 C.2     1  UNL1        0.0000
     11  C          5.3600    1.2260    1.0260 C.2     1  UNL1        0.0000
     12  C          5.5020    0.1580    1.8830 C.2     1  UNL1        0.0000
@<TRIPOS>BOND
     1     4     5    1
     2     4     2    1
     3     3     2    2
     4     2     1    1
     5     1     6    1
     6     6     7    1
     7     7     9    2
     8     7     8    1
     9     9    11    1
    10     8    10    2
    11    11    12    2
    12    10    12    1
