@<TRIPOS>MOLECULE
/home/cewinharhar/GITHUB/reincatalyze/data/processed/docking_pred/2023-Apr-25-2248_maxeplen10_maxtrainstep1000_exh16_gamma099_lrac3e-4_lrcr1e-3/6e01533e6265e20f53eb8495178921d7241890ed_ligand_2.pdbqt
 12 12 0 0 0
SMALL
GASTEIGER

@<TRIPOS>ATOM
      1  C          5.0780    1.7750    0.7540 C.3     1  UNL1        0.1270
      2  C          4.4720    1.0590    1.8900 C.2     1  UNL1        0.3030
      3  O          5.0650    0.0510    2.3640 O.2     1  UNL1       -0.2520
      4  O          3.2590    1.4600    2.4660 O.3     1  UNL1       -0.4810
      5  H          3.2580    1.7610    3.4310 H       1  UNL1        0.2960
      6  C          6.5940    1.7860    0.8240 C.3     1  UNL1        0.0470
      7  C          7.1850    1.0410   -0.3190 C.2     1  UNL1       -0.0470
      8  C          6.4200    0.1470   -1.0540 C.2     1  UNL1        0.0040
      9  C          8.5060    1.1850   -0.7030 C.2     1  UNL1        0.0040
     10  C          6.9400   -0.5640   -2.1100 C.2     1  UNL1        0.0000
     11  C          9.0260    0.4720   -1.7610 C.2     1  UNL1        0.0000
     12  C          8.2600   -0.4150   -2.4840 C.2     1  UNL1        0.0000
@<TRIPOS>BOND
     1    12    10    2
     2    12    11    1
     3    10     8    1
     4    11     9    2
     5     8     7    2
     6     9     7    1
     7     7     6    1
     8     1     6    1
     9     1     2    1
    10     2     3    2
    11     2     4    1
    12     4     5    1
