MODEL 1
REMARK VINA RESULT:      -7.3      0.000      0.000
REMARK SMILES O=C(O)CCc1ccccc1
REMARK SMILES IDX 4 1 2 2 1 3 3 4 5 6 6 7 7 8 11 9 8 10 10 11 9 12
REMARK H PARENT 3 5
REMARK Flexibility Score: inf
ROOT
ATOM      1  C   UNL     1       8.415  -0.770  -1.994  1.00  0.00     0.127 C 
ENDROOT
BRANCH   1   2
ATOM      2  C   UNL     1       8.438  -1.945  -2.884  1.00  0.00     0.303 C 
ATOM      3  O   UNL     1       9.544  -2.488  -3.153  1.00  0.00    -0.252 OA
BRANCH   2   4
ATOM      4  O   UNL     1       7.269  -2.483  -3.442  1.00  0.00    -0.481 OA
ATOM      5  H   UNL     1       7.160  -3.488  -3.458  1.00  0.00     0.296 HD
ENDBRANCH   2   4
ENDBRANCH   1   2
BRANCH   1   6
ATOM      6  C   UNL     1       7.097  -0.021  -2.068  1.00  0.00     0.047 C 
BRANCH   6   7
ATOM      7  C   UNL     1       6.482   0.108  -0.721  1.00  0.00    -0.047 A 
ATOM      8  C   UNL     1       5.775   1.250  -0.372  1.00  0.00     0.004 A 
ATOM      9  C   UNL     1       6.583  -0.876   0.246  1.00  0.00     0.004 A 
ATOM     10  C   UNL     1       5.203   1.405   0.870  1.00  0.00     0.000 A 
ATOM     11  C   UNL     1       6.010  -0.720   1.489  1.00  0.00     0.000 A 
ATOM     12  C   UNL     1       5.312   0.417   1.828  1.00  0.00     0.000 A 
ENDBRANCH   6   7
ENDBRANCH   1   6
TORSDOF 4
ENDMDL
MODEL 2
REMARK VINA RESULT:      -7.3      0.196      1.430
REMARK SMILES O=C(O)CCc1ccccc1
REMARK SMILES IDX 4 1 2 2 1 3 3 4 5 6 6 7 7 8 11 9 8 10 10 11 9 12
REMARK H PARENT 3 5
REMARK Flexibility Score: inf
ROOT
ATOM      1  C   UNL     1       8.388  -0.612  -2.186  1.00  0.00     0.127 C 
ENDROOT
BRANCH   1   2
ATOM      2  C   UNL     1       8.427  -1.893  -2.914  1.00  0.00     0.303 C 
ATOM      3  O   UNL     1       9.534  -2.476  -3.067  1.00  0.00    -0.252 OA
BRANCH   2   4
ATOM      4  O   UNL     1       7.273  -2.488  -3.442  1.00  0.00    -0.481 OA
ATOM      5  H   UNL     1       7.186  -3.495  -3.401  1.00  0.00     0.296 HD
ENDBRANCH   2   4
ENDBRANCH   1   2
BRANCH   1   6
ATOM      6  C   UNL     1       6.993  -0.012  -2.155  1.00  0.00     0.047 C 
BRANCH   6   7
ATOM      7  C   UNL     1       6.479   0.069  -0.764  1.00  0.00    -0.047 A 
ATOM      8  C   UNL     1       6.619  -1.003   0.106  1.00  0.00     0.004 A 
ATOM      9  C   UNL     1       5.835   1.188  -0.267  1.00  0.00     0.004 A 
ATOM     10  C   UNL     1       6.144  -0.963   1.397  1.00  0.00     0.000 A 
ATOM     11  C   UNL     1       5.360   1.226   1.026  1.00  0.00     0.000 A 
ATOM     12  C   UNL     1       5.502   0.158   1.883  1.00  0.00     0.000 A 
ENDBRANCH   6   7
ENDBRANCH   1   6
TORSDOF 4
ENDMDL
MODEL 3
REMARK VINA RESULT:      -6.8      3.396      5.104
REMARK SMILES O=C(O)CCc1ccccc1
REMARK SMILES IDX 4 1 2 2 1 3 3 4 5 6 6 7 7 8 11 9 8 10 10 11 9 12
REMARK H PARENT 3 5
REMARK Flexibility Score: inf
ROOT
ATOM      1  C   UNL     1       4.991   1.758   0.722  1.00  0.00     0.127 C 
ENDROOT
BRANCH   1   2
ATOM      2  C   UNL     1       4.462   1.105   1.933  1.00  0.00     0.303 C 
ATOM      3  O   UNL     1       5.147   0.205   2.491  1.00  0.00    -0.252 OA
BRANCH   2   4
ATOM      4  O   UNL     1       3.222   1.450   2.488  1.00  0.00    -0.481 OA
ATOM      5  H   UNL     1       3.111   1.400   3.492  1.00  0.00     0.296 HD
ENDBRANCH   2   4
ENDBRANCH   1   2
BRANCH   1   6
ATOM      6  C   UNL     1       6.504   1.881   0.750  1.00  0.00     0.047 C 
BRANCH   6   7
ATOM      7  C   UNL     1       7.123   1.074  -0.334  1.00  0.00    -0.047 A 
ATOM      8  C   UNL     1       8.468   1.218  -0.642  1.00  0.00     0.004 A 
ATOM      9  C   UNL     1       6.410   0.161  -1.088  1.00  0.00     0.004 A 
ATOM     10  C   UNL     1       9.069   0.494  -1.647  1.00  0.00     0.000 A 
ATOM     11  C   UNL     1       7.013  -0.564  -2.094  1.00  0.00     0.000 A 
ATOM     12  C   UNL     1       8.348  -0.414  -2.395  1.00  0.00     0.000 A 
ENDBRANCH   6   7
ENDBRANCH   1   6
TORSDOF 4
ENDMDL
MODEL 4
REMARK VINA RESULT:      -6.7      3.364      5.094
REMARK SMILES O=C(O)CCc1ccccc1
REMARK SMILES IDX 4 1 2 2 1 3 3 4 5 6 6 7 7 8 11 9 8 10 10 11 9 12
REMARK H PARENT 3 5
REMARK Flexibility Score: inf
ROOT
ATOM      1  C   UNL     1       5.078   1.775   0.754  1.00  0.00     0.127 C 
ENDROOT
BRANCH   1   2
ATOM      2  C   UNL     1       4.472   1.059   1.890  1.00  0.00     0.303 C 
ATOM      3  O   UNL     1       5.065   0.051   2.364  1.00  0.00    -0.252 OA
BRANCH   2   4
ATOM      4  O   UNL     1       3.259   1.460   2.466  1.00  0.00    -0.481 OA
ATOM      5  H   UNL     1       3.258   1.761   3.431  1.00  0.00     0.296 HD
ENDBRANCH   2   4
ENDBRANCH   1   2
BRANCH   1   6
ATOM      6  C   UNL     1       6.594   1.786   0.824  1.00  0.00     0.047 C 
BRANCH   6   7
ATOM      7  C   UNL     1       7.185   1.041  -0.319  1.00  0.00    -0.047 A 
ATOM      8  C   UNL     1       6.420   0.147  -1.054  1.00  0.00     0.004 A 
ATOM      9  C   UNL     1       8.506   1.185  -0.703  1.00  0.00     0.004 A 
ATOM     10  C   UNL     1       6.940  -0.564  -2.110  1.00  0.00     0.000 A 
ATOM     11  C   UNL     1       9.026   0.472  -1.761  1.00  0.00     0.000 A 
ATOM     12  C   UNL     1       8.260  -0.415  -2.484  1.00  0.00     0.000 A 
ENDBRANCH   6   7
ENDBRANCH   1   6
TORSDOF 4
ENDMDL
MODEL 5
REMARK VINA RESULT:      -6.6      2.009      2.689
REMARK SMILES O=C(O)CCc1ccccc1
REMARK SMILES IDX 4 1 2 2 1 3 3 4 5 6 6 7 7 8 11 9 8 10 10 11 9 12
REMARK H PARENT 3 5
REMARK Flexibility Score: inf
ROOT
ATOM      1  C   UNL     1       8.283   0.286  -1.990  1.00  0.00     0.127 C 
ENDROOT
BRANCH   1   2
ATOM      2  C   UNL     1       9.450   0.387  -1.096  1.00  0.00     0.303 C 
ATOM      3  O   UNL     1       9.516  -0.366  -0.087  1.00  0.00    -0.252 OA
BRANCH   2   4
ATOM      4  O   UNL     1      10.494   1.294  -1.329  1.00  0.00    -0.481 OA
ATOM      5  H   UNL     1      10.640   1.632  -2.271  1.00  0.00     0.296 HD
ENDBRANCH   2   4
ENDBRANCH   1   2
BRANCH   1   6
ATOM      6  C   UNL     1       7.189  -0.591  -1.407  1.00  0.00     0.047 C 
BRANCH   6   7
ATOM      7  C   UNL     1       6.367   0.165  -0.426  1.00  0.00    -0.047 A 
ATOM      8  C   UNL     1       6.124  -0.351   0.839  1.00  0.00     0.004 A 
ATOM      9  C   UNL     1       5.800   1.393  -0.713  1.00  0.00     0.004 A 
ATOM     10  C   UNL     1       5.358   0.319   1.766  1.00  0.00     0.000 A 
ATOM     11  C   UNL     1       5.034   2.063   0.216  1.00  0.00     0.000 A 
ATOM     12  C   UNL     1       4.796   1.545   1.469  1.00  0.00     0.000 A 
ENDBRANCH   6   7
ENDBRANCH   1   6
TORSDOF 4
ENDMDL
