@<TRIPOS>MOLECULE
/home/cewinharhar/GITHUB/reincatalyze/data/processed/docking_pred/2023-Apr-25-2248_maxeplen10_maxtrainstep1000_exh16_gamma099_lrac3e-4_lrcr1e-3/6e01533e6265e20f53eb8495178921d7241890ed_ligand_2.pdbqt
 12 12 0 0 0
SMALL
GASTEIGER

@<TRIPOS>ATOM
      1  C          8.4150   -0.7700   -1.9940 C.3     1  UNL1        0.1270
      2  C          8.4380   -1.9450   -2.8840 C.2     1  UNL1        0.3030
      3  O          9.5440   -2.4880   -3.1530 O.2     1  UNL1       -0.2520
      4  O          7.2690   -2.4830   -3.4420 O.3     1  UNL1       -0.4810
      5  H          7.1600   -3.4880   -3.4580 H       1  UNL1        0.2960
      6  C          7.0970   -0.0210   -2.0680 C.3     1  UNL1        0.0470
      7  C          6.4820    0.1080   -0.7210 C.2     1  UNL1       -0.0470
      8  C          5.7750    1.2500   -0.3720 C.2     1  UNL1        0.0040
      9  C          6.5830   -0.8760    0.2460 C.2     1  UNL1        0.0040
     10  C          5.2030    1.4050    0.8700 C.2     1  UNL1        0.0000
     11  C          6.0100   -0.7200    1.4890 C.2     1  UNL1        0.0000
     12  C          5.3120    0.4170    1.8280 C.2     1  UNL1        0.0000
@<TRIPOS>BOND
     1     5     4    1
     2     4     2    1
     3     3     2    2
     4     2     1    1
     5     6     1    1
     6     6     7    1
     7     7     8    2
     8     7     9    1
     9     8    10    1
    10     9    11    2
    11    10    12    2
    12    11    12    1
