@<TRIPOS>MOLECULE
/home/cewinharhar/GITHUB/reincatalyze/data/processed/docking_pred/2023-Apr-25-2248_maxeplen10_maxtrainstep1000_exh16_gamma099_lrac3e-4_lrcr1e-3/6e6a373552f8835a6ba7a6c6fa001d8bbefa4498_ligand_2.pdbqt
 12 12 0 0 0
SMALL
GASTEIGER

@<TRIPOS>ATOM
      1  C          8.4090   -0.5620   -2.0420 C.3     1  UNL1        0.1270
      2  C          8.4580   -1.8120   -2.8220 C.2     1  UNL1        0.3030
      3  O          9.5740   -2.3620   -3.0270 O.2     1  UNL1       -0.2520
      4  O          7.3040   -2.4120   -3.3450 O.3     1  UNL1       -0.4810
      5  H          6.4880   -2.4880   -2.7540 H       1  UNL1        0.2960
      6  C          7.0390    0.0890   -2.0860 C.3     1  UNL1        0.0470
      7  C          6.4560    0.1970   -0.7230 C.2     1  UNL1       -0.0470
      8  C          6.5860   -0.8420    0.1870 C.2     1  UNL1        0.0040
      9  C          5.7570    1.3110   -0.2940 C.2     1  UNL1        0.0040
     10  C          6.0490   -0.7770    1.4520 C.2     1  UNL1        0.0000
     11  C          5.2200    1.3750    0.9730 C.2     1  UNL1        0.0000
     12  C          5.3520    0.3390    1.8700 C.2     1  UNL1        0.0000
@<TRIPOS>BOND
     1     4     2    1
     2     4     5    1
     3     3     2    2
     4     2     1    1
     5     6     1    1
     6     6     7    1
     7     7     9    2
     8     7     8    1
     9     9    11    1
    10     8    10    2
    11    11    12    2
    12    10    12    1
