@<TRIPOS>MOLECULE
/home/cewinharhar/GITHUB/reincatalyze/data/processed/docking_pred/2023-Apr-25-2248_maxeplen10_maxtrainstep1000_exh16_gamma099_lrac3e-4_lrcr1e-3/6e6a373552f8835a6ba7a6c6fa001d8bbefa4498_ligand_2.pdbqt
 12 12 0 0 0
SMALL
GASTEIGER

@<TRIPOS>ATOM
      1  C          8.4030   -0.5610   -2.1600 C.3     1  UNL1        0.1270
      2  C          8.4920   -1.8330   -2.8990 C.2     1  UNL1        0.3030
      3  O          9.6160   -2.3900   -3.0260 O.2     1  UNL1       -0.2520
      4  O          7.3670   -2.4500   -3.4650 O.3     1  UNL1       -0.4810
      5  H          6.4940   -2.4250   -2.9540 H       1  UNL1        0.2960
      6  C          6.9920   -0.0010   -2.1500 C.3     1  UNL1        0.0470
      7  C          6.4590    0.0760   -0.7650 C.2     1  UNL1       -0.0470
      8  C          5.8140    1.2200   -0.3170 C.2     1  UNL1        0.0040
      9  C          6.5800   -0.9620    0.1410 C.2     1  UNL1        0.0040
     10  C          5.3190    1.3250    0.9630 C.2     1  UNL1        0.0000
     11  C          6.0830   -0.8540    1.4230 C.2     1  UNL1        0.0000
     12  C          5.4460    0.2840    1.8610 C.2     1  UNL1        0.0000
@<TRIPOS>BOND
     1     4     5    1
     2     4     2    1
     3     3     2    2
     4     2     1    1
     5     1     6    1
     6     6     7    1
     7     7     8    2
     8     7     9    1
     9     8    10    1
    10     9    11    2
    11    10    12    2
    12    11    12    1
