MODEL 1
REMARK VINA RESULT:      -6.8      0.000      0.000
REMARK SMILES O=C(O)CCc1ccccc1
REMARK SMILES IDX 4 1 2 2 1 3 3 4 5 6 6 7 7 8 11 9 8 10 10 11 9 12
REMARK H PARENT 3 5
REMARK Flexibility Score: inf
ROOT
ATOM      1  C   UNL     1       5.005   1.763   0.722  1.00  0.00     0.127 C 
ENDROOT
BRANCH   1   2
ATOM      2  C   UNL     1       4.471   1.105   1.928  1.00  0.00     0.303 C 
ATOM      3  O   UNL     1       5.151   0.200   2.484  1.00  0.00    -0.252 OA
BRANCH   2   4
ATOM      4  O   UNL     1       3.230   1.452   2.481  1.00  0.00    -0.481 OA
ATOM      5  H   UNL     1       2.453   0.816   2.362  1.00  0.00     0.296 HD
ENDBRANCH   2   4
ENDBRANCH   1   2
BRANCH   1   6
ATOM      6  C   UNL     1       6.517   1.895   0.762  1.00  0.00     0.047 C 
BRANCH   6   7
ATOM      7  C   UNL     1       7.150   1.110  -0.330  1.00  0.00    -0.047 A 
ATOM      8  C   UNL     1       6.405   0.207  -1.076  1.00  0.00     0.004 A 
ATOM      9  C   UNL     1       8.490   1.223  -0.653  1.00  0.00     0.004 A 
ATOM     10  C   UNL     1       6.964  -0.542  -2.086  1.00  0.00     0.000 A 
ATOM     11  C   UNL     1       9.048   0.472  -1.665  1.00  0.00     0.000 A 
ATOM     12  C   UNL     1       8.303  -0.423  -2.400  1.00  0.00     0.000 A 
ENDBRANCH   6   7
ENDBRANCH   1   6
TORSDOF 4
ENDMDL
MODEL 2
REMARK VINA RESULT:      -6.8      0.028      1.421
REMARK SMILES O=C(O)CCc1ccccc1
REMARK SMILES IDX 4 1 2 2 1 3 3 4 5 6 6 7 7 8 11 9 8 10 10 11 9 12
REMARK H PARENT 3 5
REMARK Flexibility Score: inf
ROOT
ATOM      1  C   UNL     1       4.992   1.780   0.729  1.00  0.00     0.127 C 
ENDROOT
BRANCH   1   2
ATOM      2  C   UNL     1       4.462   1.109   1.929  1.00  0.00     0.303 C 
ATOM      3  O   UNL     1       5.145   0.199   2.473  1.00  0.00    -0.252 OA
BRANCH   2   4
ATOM      4  O   UNL     1       3.223   1.449   2.490  1.00  0.00    -0.481 OA
ATOM      5  H   UNL     1       3.124   2.351   2.934  1.00  0.00     0.296 HD
ENDBRANCH   2   4
ENDBRANCH   1   2
BRANCH   1   6
ATOM      6  C   UNL     1       6.506   1.890   0.754  1.00  0.00     0.047 C 
BRANCH   6   7
ATOM      7  C   UNL     1       7.117   1.079  -0.332  1.00  0.00    -0.047 A 
ATOM      8  C   UNL     1       8.460   1.221  -0.651  1.00  0.00     0.004 A 
ATOM      9  C   UNL     1       6.397   0.164  -1.078  1.00  0.00     0.004 A 
ATOM     10  C   UNL     1       9.052   0.493  -1.657  1.00  0.00     0.000 A 
ATOM     11  C   UNL     1       6.992  -0.564  -2.086  1.00  0.00     0.000 A 
ATOM     12  C   UNL     1       8.325  -0.417  -2.397  1.00  0.00     0.000 A 
ENDBRANCH   6   7
ENDBRANCH   1   6
TORSDOF 4
ENDMDL
MODEL 3
REMARK VINA RESULT:      -6.7      3.350      5.049
REMARK SMILES O=C(O)CCc1ccccc1
REMARK SMILES IDX 4 1 2 2 1 3 3 4 5 6 6 7 7 8 11 9 8 10 10 11 9 12
REMARK H PARENT 3 5
REMARK Flexibility Score: inf
ROOT
ATOM      1  C   UNL     1       8.409  -0.562  -2.042  1.00  0.00     0.127 C 
ENDROOT
BRANCH   1   2
ATOM      2  C   UNL     1       8.458  -1.812  -2.822  1.00  0.00     0.303 C 
ATOM      3  O   UNL     1       9.574  -2.362  -3.027  1.00  0.00    -0.252 OA
BRANCH   2   4
ATOM      4  O   UNL     1       7.304  -2.412  -3.345  1.00  0.00    -0.481 OA
ATOM      5  H   UNL     1       6.488  -2.488  -2.754  1.00  0.00     0.296 HD
ENDBRANCH   2   4
ENDBRANCH   1   2
BRANCH   1   6
ATOM      6  C   UNL     1       7.039   0.089  -2.086  1.00  0.00     0.047 C 
BRANCH   6   7
ATOM      7  C   UNL     1       6.456   0.197  -0.723  1.00  0.00    -0.047 A 
ATOM      8  C   UNL     1       6.586  -0.842   0.187  1.00  0.00     0.004 A 
ATOM      9  C   UNL     1       5.757   1.311  -0.294  1.00  0.00     0.004 A 
ATOM     10  C   UNL     1       6.049  -0.777   1.452  1.00  0.00     0.000 A 
ATOM     11  C   UNL     1       5.220   1.375   0.973  1.00  0.00     0.000 A 
ATOM     12  C   UNL     1       5.352   0.339   1.870  1.00  0.00     0.000 A 
ENDBRANCH   6   7
ENDBRANCH   1   6
TORSDOF 4
ENDMDL
MODEL 4
REMARK VINA RESULT:      -6.7      3.414      5.094
REMARK SMILES O=C(O)CCc1ccccc1
REMARK SMILES IDX 4 1 2 2 1 3 3 4 5 6 6 7 7 8 11 9 8 10 10 11 9 12
REMARK H PARENT 3 5
REMARK Flexibility Score: inf
ROOT
ATOM      1  C   UNL     1       8.403  -0.561  -2.160  1.00  0.00     0.127 C 
ENDROOT
BRANCH   1   2
ATOM      2  C   UNL     1       8.492  -1.833  -2.899  1.00  0.00     0.303 C 
ATOM      3  O   UNL     1       9.616  -2.390  -3.026  1.00  0.00    -0.252 OA
BRANCH   2   4
ATOM      4  O   UNL     1       7.367  -2.450  -3.465  1.00  0.00    -0.481 OA
ATOM      5  H   UNL     1       6.494  -2.425  -2.954  1.00  0.00     0.296 HD
ENDBRANCH   2   4
ENDBRANCH   1   2
BRANCH   1   6
ATOM      6  C   UNL     1       6.992  -0.001  -2.150  1.00  0.00     0.047 C 
BRANCH   6   7
ATOM      7  C   UNL     1       6.459   0.076  -0.765  1.00  0.00    -0.047 A 
ATOM      8  C   UNL     1       5.814   1.220  -0.317  1.00  0.00     0.004 A 
ATOM      9  C   UNL     1       6.580  -0.962   0.141  1.00  0.00     0.004 A 
ATOM     10  C   UNL     1       5.319   1.325   0.963  1.00  0.00     0.000 A 
ATOM     11  C   UNL     1       6.083  -0.854   1.423  1.00  0.00     0.000 A 
ATOM     12  C   UNL     1       5.446   0.284   1.861  1.00  0.00     0.000 A 
ENDBRANCH   6   7
ENDBRANCH   1   6
TORSDOF 4
ENDMDL
MODEL 5
REMARK VINA RESULT:      -6.6      2.964      4.815
REMARK SMILES O=C(O)CCc1ccccc1
REMARK SMILES IDX 4 1 2 2 1 3 3 4 5 6 6 7 7 8 11 9 8 10 10 11 9 12
REMARK H PARENT 3 5
REMARK Flexibility Score: inf
ROOT
ATOM      1  C   UNL     1       8.222   0.233  -2.326  1.00  0.00     0.127 C 
ENDROOT
BRANCH   1   2
ATOM      2  C   UNL     1       8.174  -1.224  -2.544  1.00  0.00     0.303 C 
ATOM      3  O   UNL     1       7.062  -1.816  -2.485  1.00  0.00    -0.252 OA
BRANCH   2   4
ATOM      4  O   UNL     1       9.325  -1.977  -2.817  1.00  0.00    -0.481 OA
ATOM      5  H   UNL     1       9.546  -2.757  -2.213  1.00  0.00     0.296 HD
ENDBRANCH   2   4
ENDBRANCH   1   2
BRANCH   1   6
ATOM      6  C   UNL     1       8.635   0.588  -0.909  1.00  0.00     0.047 C 
BRANCH   6   7
ATOM      7  C   UNL     1       7.466   0.565   0.009  1.00  0.00    -0.047 A 
ATOM      8  C   UNL     1       7.416  -0.329   1.068  1.00  0.00     0.004 A 
ATOM      9  C   UNL     1       6.380   1.406  -0.142  1.00  0.00     0.004 A 
ATOM     10  C   UNL     1       6.344  -0.383   1.929  1.00  0.00     0.000 A 
ATOM     11  C   UNL     1       5.306   1.352   0.721  1.00  0.00     0.000 A 
ATOM     12  C   UNL     1       5.263   0.461   1.769  1.00  0.00     0.000 A 
ENDBRANCH   6   7
ENDBRANCH   1   6
TORSDOF 4
ENDMDL
