MODEL 1
REMARK VINA RESULT:      -7.3      0.000      0.000
REMARK SMILES O=C(O)CCc1ccccc1
REMARK SMILES IDX 4 1 2 2 1 3 3 4 5 6 6 7 7 8 11 9 8 10 10 11 9 12
REMARK H PARENT 3 5
REMARK Flexibility Score: inf
ROOT
ATOM      1  C   UNL     1       8.395  -0.623  -2.179  1.00  0.00     0.127 C 
ENDROOT
BRANCH   1   2
ATOM      2  C   UNL     1       8.427  -1.899  -2.916  1.00  0.00     0.303 C 
ATOM      3  O   UNL     1       9.532  -2.483  -3.081  1.00  0.00    -0.252 OA
BRANCH   2   4
ATOM      4  O   UNL     1       7.267  -2.488  -3.440  1.00  0.00    -0.481 OA
ATOM      5  H   UNL     1       6.860  -2.093  -4.277  1.00  0.00     0.296 HD
ENDBRANCH   2   4
ENDBRANCH   1   2
BRANCH   1   6
ATOM      6  C   UNL     1       7.005  -0.014  -2.145  1.00  0.00     0.047 C 
BRANCH   6   7
ATOM      7  C   UNL     1       6.486   0.050  -0.753  1.00  0.00    -0.047 A 
ATOM      8  C   UNL     1       6.619  -1.033   0.103  1.00  0.00     0.004 A 
ATOM      9  C   UNL     1       5.845   1.165  -0.245  1.00  0.00     0.004 A 
ATOM     10  C   UNL     1       6.140  -1.008   1.393  1.00  0.00     0.000 A 
ATOM     11  C   UNL     1       5.366   1.189   1.047  1.00  0.00     0.000 A 
ATOM     12  C   UNL     1       5.501   0.109   1.891  1.00  0.00     0.000 A 
ENDBRANCH   6   7
ENDBRANCH   1   6
TORSDOF 4
ENDMDL
MODEL 2
REMARK VINA RESULT:      -7.3      0.199      1.729
REMARK SMILES O=C(O)CCc1ccccc1
REMARK SMILES IDX 4 1 2 2 1 3 3 4 5 6 6 7 7 8 11 9 8 10 10 11 9 12
REMARK H PARENT 3 5
REMARK Flexibility Score: inf
ROOT
ATOM      1  C   UNL     1       8.408  -0.716  -2.050  1.00  0.00     0.127 C 
ENDROOT
BRANCH   1   2
ATOM      2  C   UNL     1       8.393  -1.940  -2.869  1.00  0.00     0.303 C 
ATOM      3  O   UNL     1       7.286  -2.409  -3.250  1.00  0.00    -0.252 OA
BRANCH   2   4
ATOM      4  O   UNL     1       9.570  -2.604  -3.244  1.00  0.00    -0.481 OA
ATOM      5  H   UNL     1      10.172  -2.968  -2.517  1.00  0.00     0.296 HD
ENDBRANCH   2   4
ENDBRANCH   1   2
BRANCH   1   6
ATOM      6  C   UNL     1       7.080   0.018  -2.090  1.00  0.00     0.047 C 
BRANCH   6   7
ATOM      7  C   UNL     1       6.484   0.117  -0.732  1.00  0.00    -0.047 A 
ATOM      8  C   UNL     1       5.776   1.248  -0.351  1.00  0.00     0.004 A 
ATOM      9  C   UNL     1       6.606  -0.884   0.214  1.00  0.00     0.004 A 
ATOM     10  C   UNL     1       5.221   1.374   0.902  1.00  0.00     0.000 A 
ATOM     11  C   UNL     1       6.051  -0.756   1.468  1.00  0.00     0.000 A 
ATOM     12  C   UNL     1       5.350   0.369   1.840  1.00  0.00     0.000 A 
ENDBRANCH   6   7
ENDBRANCH   1   6
TORSDOF 4
ENDMDL
MODEL 3
REMARK VINA RESULT:      -7.0      0.696      1.203
REMARK SMILES O=C(O)CCc1ccccc1
REMARK SMILES IDX 4 1 2 2 1 3 3 4 5 6 6 7 7 8 11 9 8 10 10 11 9 12
REMARK H PARENT 3 5
REMARK Flexibility Score: inf
ROOT
ATOM      1  C   UNL     1       8.288  -0.795  -2.038  1.00  0.00     0.127 C 
ENDROOT
BRANCH   1   2
ATOM      2  C   UNL     1       8.384  -1.990  -2.895  1.00  0.00     0.303 C 
ATOM      3  O   UNL     1       9.509  -2.533  -3.065  1.00  0.00    -0.252 OA
BRANCH   2   4
ATOM      4  O   UNL     1       7.263  -2.548  -3.528  1.00  0.00    -0.481 OA
ATOM      5  H   UNL     1       6.718  -3.236  -3.027  1.00  0.00     0.296 HD
ENDBRANCH   2   4
ENDBRANCH   1   2
BRANCH   1   6
ATOM      6  C   UNL     1       7.910  -1.141  -0.609  1.00  0.00     0.047 C 
BRANCH   6   7
ATOM      7  C   UNL     1       6.895  -0.193  -0.082  1.00  0.00    -0.047 A 
ATOM      8  C   UNL     1       6.358  -0.363   1.186  1.00  0.00     0.004 A 
ATOM      9  C   UNL     1       6.428   0.886  -0.811  1.00  0.00     0.004 A 
ATOM     10  C   UNL     1       5.409   0.492   1.699  1.00  0.00     0.000 A 
ATOM     11  C   UNL     1       5.477   1.741  -0.296  1.00  0.00     0.000 A 
ATOM     12  C   UNL     1       4.949   1.565   0.962  1.00  0.00     0.000 A 
ENDBRANCH   6   7
ENDBRANCH   1   6
TORSDOF 4
ENDMDL
MODEL 4
REMARK VINA RESULT:      -6.8      3.405      5.078
REMARK SMILES O=C(O)CCc1ccccc1
REMARK SMILES IDX 4 1 2 2 1 3 3 4 5 6 6 7 7 8 11 9 8 10 10 11 9 12
REMARK H PARENT 3 5
REMARK Flexibility Score: inf
ROOT
ATOM      1  C   UNL     1       4.985   1.785   0.738  1.00  0.00     0.127 C 
ENDROOT
BRANCH   1   2
ATOM      2  C   UNL     1       4.451   1.110   1.934  1.00  0.00     0.303 C 
ATOM      3  O   UNL     1       5.130   0.194   2.474  1.00  0.00    -0.252 OA
BRANCH   2   4
ATOM      4  O   UNL     1       3.213   1.452   2.496  1.00  0.00    -0.481 OA
ATOM      5  H   UNL     1       3.177   2.212   3.162  1.00  0.00     0.296 HD
ENDBRANCH   2   4
ENDBRANCH   1   2
BRANCH   1   6
ATOM      6  C   UNL     1       6.497   1.915   0.779  1.00  0.00     0.047 C 
BRANCH   6   7
ATOM      7  C   UNL     1       7.129   1.132  -0.315  1.00  0.00    -0.047 A 
ATOM      8  C   UNL     1       6.384   0.230  -1.061  1.00  0.00     0.004 A 
ATOM      9  C   UNL     1       8.468   1.245  -0.640  1.00  0.00     0.004 A 
ATOM     10  C   UNL     1       6.941  -0.518  -2.073  1.00  0.00     0.000 A 
ATOM     11  C   UNL     1       9.025   0.496  -1.654  1.00  0.00     0.000 A 
ATOM     12  C   UNL     1       8.280  -0.398  -2.389  1.00  0.00     0.000 A 
ENDBRANCH   6   7
ENDBRANCH   1   6
TORSDOF 4
ENDMDL
MODEL 5
REMARK VINA RESULT:      -6.7      1.968      2.702
REMARK SMILES O=C(O)CCc1ccccc1
REMARK SMILES IDX 4 1 2 2 1 3 3 4 5 6 6 7 7 8 11 9 8 10 10 11 9 12
REMARK H PARENT 3 5
REMARK Flexibility Score: inf
ROOT
ATOM      1  C   UNL     1       8.295   0.197  -2.196  1.00  0.00     0.127 C 
ENDROOT
BRANCH   1   2
ATOM      2  C   UNL     1       9.414   0.362  -1.251  1.00  0.00     0.303 C 
ATOM      3  O   UNL     1       9.471  -0.381  -0.234  1.00  0.00    -0.252 OA
BRANCH   2   4
ATOM      4  O   UNL     1      10.421   1.318  -1.444  1.00  0.00    -0.481 OA
ATOM      5  H   UNL     1      11.372   0.999  -1.573  1.00  0.00     0.296 HD
ENDBRANCH   2   4
ENDBRANCH   1   2
BRANCH   1   6
ATOM      6  C   UNL     1       7.153  -0.605  -1.599  1.00  0.00     0.047 C 
BRANCH   6   7
ATOM      7  C   UNL     1       6.368   0.217  -0.641  1.00  0.00    -0.047 A 
ATOM      8  C   UNL     1       5.837   1.439  -1.027  1.00  0.00     0.004 A 
ATOM      9  C   UNL     1       6.134  -0.174   0.665  1.00  0.00     0.004 A 
ATOM     10  C   UNL     1       5.115   2.228  -0.161  1.00  0.00     0.000 A 
ATOM     11  C   UNL     1       5.411   0.617   1.531  1.00  0.00     0.000 A 
ATOM     12  C   UNL     1       4.888   1.829   1.140  1.00  0.00     0.000 A 
ENDBRANCH   6   7
ENDBRANCH   1   6
TORSDOF 4
ENDMDL
