@<TRIPOS>MOLECULE
/home/cewinharhar/GITHUB/reincatalyze/data/processed/docking_pred/2023-Apr-25-2248_maxeplen10_maxtrainstep1000_exh16_gamma099_lrac3e-4_lrcr1e-3/6eca206a948153dc2868ed9d680cd756ab453321_ligand_2.pdbqt
 12 12 0 0 0
SMALL
GASTEIGER

@<TRIPOS>ATOM
      1  C          4.9850    1.7850    0.7380 C.3     1  UNL1        0.1270
      2  C          4.4510    1.1100    1.9340 C.2     1  UNL1        0.3030
      3  O          5.1300    0.1940    2.4740 O.2     1  UNL1       -0.2520
      4  O          3.2130    1.4520    2.4960 O.3     1  UNL1       -0.4810
      5  H          3.1770    2.2120    3.1620 H       1  UNL1        0.2960
      6  C          6.4970    1.9150    0.7790 C.3     1  UNL1        0.0470
      7  C          7.1290    1.1320   -0.3150 C.2     1  UNL1       -0.0470
      8  C          6.3840    0.2300   -1.0610 C.2     1  UNL1        0.0040
      9  C          8.4680    1.2450   -0.6400 C.2     1  UNL1        0.0040
     10  C          6.9410   -0.5180   -2.0730 C.2     1  UNL1        0.0000
     11  C          9.0250    0.4960   -1.6540 C.2     1  UNL1        0.0000
     12  C          8.2800   -0.3980   -2.3890 C.2     1  UNL1        0.0000
@<TRIPOS>BOND
     1    12    10    2
     2    12    11    1
     3    10     8    1
     4    11     9    2
     5     8     7    2
     6     9     7    1
     7     7     6    1
     8     1     6    1
     9     1     2    1
    10     2     3    2
    11     2     4    1
    12     4     5    1
