@<TRIPOS>MOLECULE
/home/cewinharhar/GITHUB/reincatalyze/data/processed/docking_pred/2023-Apr-25-2248_maxeplen10_maxtrainstep1000_exh16_gamma099_lrac3e-4_lrcr1e-3/6eca206a948153dc2868ed9d680cd756ab453321_ligand_2.pdbqt
 12 12 0 0 0
SMALL
GASTEIGER

@<TRIPOS>ATOM
      1  C          8.3950   -0.6230   -2.1790 C.3     1  UNL1        0.1270
      2  C          8.4270   -1.8990   -2.9160 C.2     1  UNL1        0.3030
      3  O          9.5320   -2.4830   -3.0810 O.2     1  UNL1       -0.2520
      4  O          7.2670   -2.4880   -3.4400 O.3     1  UNL1       -0.4810
      5  H          6.8600   -2.0930   -4.2770 H       1  UNL1        0.2960
      6  C          7.0050   -0.0140   -2.1450 C.3     1  UNL1        0.0470
      7  C          6.4860    0.0500   -0.7530 C.2     1  UNL1       -0.0470
      8  C          6.6190   -1.0330    0.1030 C.2     1  UNL1        0.0040
      9  C          5.8450    1.1650   -0.2450 C.2     1  UNL1        0.0040
     10  C          6.1400   -1.0080    1.3930 C.2     1  UNL1        0.0000
     11  C          5.3660    1.1890    1.0470 C.2     1  UNL1        0.0000
     12  C          5.5010    0.1090    1.8910 C.2     1  UNL1        0.0000
@<TRIPOS>BOND
     1     5     4    1
     2     4     2    1
     3     3     2    2
     4     2     1    1
     5     1     6    1
     6     6     7    1
     7     7     9    2
     8     7     8    1
     9     9    11    1
    10     8    10    2
    11    11    12    2
    12    10    12    1
