@<TRIPOS>MOLECULE
/home/cewinharhar/GITHUB/reincatalyze/data/processed/docking_pred/2023-Apr-25-2248_maxeplen10_maxtrainstep1000_exh16_gamma099_lrac3e-4_lrcr1e-3/6eca206a948153dc2868ed9d680cd756ab453321_ligand_2.pdbqt
 12 12 0 0 0
SMALL
GASTEIGER

@<TRIPOS>ATOM
      1  C          8.2880   -0.7950   -2.0380 C.3     1  UNL1        0.1270
      2  C          8.3840   -1.9900   -2.8950 C.2     1  UNL1        0.3030
      3  O          9.5090   -2.5330   -3.0650 O.2     1  UNL1       -0.2520
      4  O          7.2630   -2.5480   -3.5280 O.3     1  UNL1       -0.4810
      5  H          6.7180   -3.2360   -3.0270 H       1  UNL1        0.2960
      6  C          7.9100   -1.1410   -0.6090 C.3     1  UNL1        0.0470
      7  C          6.8950   -0.1930   -0.0820 C.2     1  UNL1       -0.0470
      8  C          6.3580   -0.3630    1.1860 C.2     1  UNL1        0.0040
      9  C          6.4280    0.8860   -0.8110 C.2     1  UNL1        0.0040
     10  C          5.4090    0.4920    1.6990 C.2     1  UNL1        0.0000
     11  C          5.4770    1.7410   -0.2960 C.2     1  UNL1        0.0000
     12  C          4.9490    1.5650    0.9620 C.2     1  UNL1        0.0000
@<TRIPOS>BOND
     1     4     5    1
     2     4     2    1
     3     3     2    2
     4     2     1    1
     5     1     6    1
     6     9    11    1
     7     9     7    2
     8     6     7    1
     9    11    12    2
    10     7     8    1
    11    12    10    1
    12     8    10    2
