@<TRIPOS>MOLECULE
/home/cewinharhar/GITHUB/reincatalyze/data/processed/docking_pred/2023-Apr-25-2248_maxeplen10_maxtrainstep1000_exh16_gamma099_lrac3e-4_lrcr1e-3/6eca206a948153dc2868ed9d680cd756ab453321_ligand_2.pdbqt
 12 12 0 0 0
SMALL
GASTEIGER

@<TRIPOS>ATOM
      1  C          8.2950    0.1970   -2.1960 C.3     1  UNL1        0.1270
      2  C          9.4140    0.3620   -1.2510 C.2     1  UNL1        0.3030
      3  O          9.4710   -0.3810   -0.2340 O.2     1  UNL1       -0.2520
      4  O         10.4210    1.3180   -1.4440 O.3     1  UNL1       -0.4810
      5  H         11.3720    0.9990   -1.5730 H       1  UNL1        0.2960
      6  C          7.1530   -0.6050   -1.5990 C.3     1  UNL1        0.0470
      7  C          6.3680    0.2170   -0.6410 C.2     1  UNL1       -0.0470
      8  C          5.8370    1.4390   -1.0270 C.2     1  UNL1        0.0040
      9  C          6.1340   -0.1740    0.6650 C.2     1  UNL1        0.0040
     10  C          5.1150    2.2280   -0.1610 C.2     1  UNL1        0.0000
     11  C          5.4110    0.6170    1.5310 C.2     1  UNL1        0.0000
     12  C          4.8880    1.8290    1.1400 C.2     1  UNL1        0.0000
@<TRIPOS>BOND
     1     1     6    1
     2     1     2    1
     3     6     7    1
     4     5     4    1
     5     4     2    1
     6     2     3    2
     7     8     7    2
     8     8    10    1
     9     7     9    1
    10    10    12    2
    11     9    11    2
    12    12    11    1
