@<TRIPOS>MOLECULE
/home/cewinharhar/GITHUB/reincatalyze/data/processed/docking_pred/2023-Apr-25-2248_maxeplen10_maxtrainstep1000_exh16_gamma099_lrac3e-4_lrcr1e-3/6eca206a948153dc2868ed9d680cd756ab453321_ligand_2.pdbqt
 12 12 0 0 0
SMALL
GASTEIGER

@<TRIPOS>ATOM
      1  C          8.4080   -0.7160   -2.0500 C.3     1  UNL1        0.1270
      2  C          8.3930   -1.9400   -2.8690 C.2     1  UNL1        0.3030
      3  O          7.2860   -2.4090   -3.2500 O.2     1  UNL1       -0.2520
      4  O          9.5700   -2.6040   -3.2440 O.3     1  UNL1       -0.4810
      5  H         10.1720   -2.9680   -2.5170 H       1  UNL1        0.2960
      6  C          7.0800    0.0180   -2.0900 C.3     1  UNL1        0.0470
      7  C          6.4840    0.1170   -0.7320 C.2     1  UNL1       -0.0470
      8  C          5.7760    1.2480   -0.3510 C.2     1  UNL1        0.0040
      9  C          6.6060   -0.8840    0.2140 C.2     1  UNL1        0.0040
     10  C          5.2210    1.3740    0.9020 C.2     1  UNL1        0.0000
     11  C          6.0510   -0.7560    1.4680 C.2     1  UNL1        0.0000
     12  C          5.3500    0.3690    1.8400 C.2     1  UNL1        0.0000
@<TRIPOS>BOND
     1     3     2    2
     2     4     2    1
     3     4     5    1
     4     2     1    1
     5     6     1    1
     6     6     7    1
     7     7     8    2
     8     7     9    1
     9     8    10    1
    10     9    11    2
    11    10    12    2
    12    11    12    1
