MODEL 1
REMARK VINA RESULT:      -7.3      0.000      0.000
REMARK SMILES O=C(O)CCc1ccccc1
REMARK SMILES IDX 4 1 2 2 1 3 3 4 5 6 6 7 7 8 11 9 8 10 10 11 9 12
REMARK H PARENT 3 5
REMARK Flexibility Score: inf
ROOT
ATOM      1  C   UNL     1       8.407  -0.621  -2.177  1.00  0.00     0.127 C 
ENDROOT
BRANCH   1   2
ATOM      2  C   UNL     1       8.434  -1.901  -2.907  1.00  0.00     0.303 C 
ATOM      3  O   UNL     1       9.536  -2.495  -3.063  1.00  0.00    -0.252 OA
BRANCH   2   4
ATOM      4  O   UNL     1       7.273  -2.486  -3.435  1.00  0.00    -0.481 OA
ATOM      5  H   UNL     1       7.114  -2.429  -4.432  1.00  0.00     0.296 HD
ENDBRANCH   2   4
ENDBRANCH   1   2
BRANCH   1   6
ATOM      6  C   UNL     1       7.021  -0.002  -2.156  1.00  0.00     0.047 C 
BRANCH   6   7
ATOM      7  C   UNL     1       6.488   0.063  -0.771  1.00  0.00    -0.047 A 
ATOM      8  C   UNL     1       5.837   1.201  -0.315  1.00  0.00     0.004 A 
ATOM      9  C   UNL     1       6.613  -0.980   0.129  1.00  0.00     0.004 A 
ATOM     10  C   UNL     1       5.342   1.295   0.965  1.00  0.00     0.000 A 
ATOM     11  C   UNL     1       6.116  -0.884   1.411  1.00  0.00     0.000 A 
ATOM     12  C   UNL     1       5.473   0.249   1.856  1.00  0.00     0.000 A 
ENDBRANCH   6   7
ENDBRANCH   1   6
TORSDOF 4
ENDMDL
MODEL 2
REMARK VINA RESULT:      -7.3      0.157      1.726
REMARK SMILES O=C(O)CCc1ccccc1
REMARK SMILES IDX 4 1 2 2 1 3 3 4 5 6 6 7 7 8 11 9 8 10 10 11 9 12
REMARK H PARENT 3 5
REMARK Flexibility Score: inf
ROOT
ATOM      1  C   UNL     1       8.398  -0.684  -2.078  1.00  0.00     0.127 C 
ENDROOT
BRANCH   1   2
ATOM      2  C   UNL     1       8.391  -1.920  -2.880  1.00  0.00     0.303 C 
ATOM      3  O   UNL     1       7.287  -2.411  -3.240  1.00  0.00    -0.252 OA
BRANCH   2   4
ATOM      4  O   UNL     1       9.574  -2.572  -3.259  1.00  0.00    -0.481 OA
ATOM      5  H   UNL     1       9.552  -3.184  -4.064  1.00  0.00     0.296 HD
ENDBRANCH   2   4
ENDBRANCH   1   2
BRANCH   1   6
ATOM      6  C   UNL     1       7.068   0.046  -2.138  1.00  0.00     0.047 C 
BRANCH   6   7
ATOM      7  C   UNL     1       6.477   0.188  -0.782  1.00  0.00    -0.047 A 
ATOM      8  C   UNL     1       6.604  -0.826   0.156  1.00  0.00     0.004 A 
ATOM      9  C   UNL     1       5.773   1.311  -0.386  1.00  0.00     0.004 A 
ATOM     10  C   UNL     1       6.060  -0.729   1.416  1.00  0.00     0.000 A 
ATOM     11  C   UNL     1       5.229   1.407   0.877  1.00  0.00     0.000 A 
ATOM     12  C   UNL     1       5.358   0.395   1.801  1.00  0.00     0.000 A 
ENDBRANCH   6   7
ENDBRANCH   1   6
TORSDOF 4
ENDMDL
MODEL 3
REMARK VINA RESULT:      -6.8      3.389      5.062
REMARK SMILES O=C(O)CCc1ccccc1
REMARK SMILES IDX 4 1 2 2 1 3 3 4 5 6 6 7 7 8 11 9 8 10 10 11 9 12
REMARK H PARENT 3 5
REMARK Flexibility Score: inf
ROOT
ATOM      1  C   UNL     1       5.018   1.787   0.718  1.00  0.00     0.127 C 
ENDROOT
BRANCH   1   2
ATOM      2  C   UNL     1       4.482   1.114   1.914  1.00  0.00     0.303 C 
ATOM      3  O   UNL     1       5.160   0.202   2.459  1.00  0.00    -0.252 OA
BRANCH   2   4
ATOM      4  O   UNL     1       3.241   1.456   2.472  1.00  0.00    -0.481 OA
ATOM      5  H   UNL     1       3.226   1.922   3.368  1.00  0.00     0.296 HD
ENDBRANCH   2   4
ENDBRANCH   1   2
BRANCH   1   6
ATOM      6  C   UNL     1       6.533   1.885   0.744  1.00  0.00     0.047 C 
BRANCH   6   7
ATOM      7  C   UNL     1       7.138   1.060  -0.334  1.00  0.00    -0.047 A 
ATOM      8  C   UNL     1       8.476   1.208  -0.671  1.00  0.00     0.004 A 
ATOM      9  C   UNL     1       6.418   0.125  -1.055  1.00  0.00     0.004 A 
ATOM     10  C   UNL     1       9.064   0.467  -1.671  1.00  0.00     0.000 A 
ATOM     11  C   UNL     1       7.008  -0.616  -2.056  1.00  0.00     0.000 A 
ATOM     12  C   UNL     1       8.336  -0.463  -2.386  1.00  0.00     0.000 A 
ENDBRANCH   6   7
ENDBRANCH   1   6
TORSDOF 4
ENDMDL
MODEL 4
REMARK VINA RESULT:      -6.8      1.055      1.731
REMARK SMILES O=C(O)CCc1ccccc1
REMARK SMILES IDX 4 1 2 2 1 3 3 4 5 6 6 7 7 8 11 9 8 10 10 11 9 12
REMARK H PARENT 3 5
REMARK Flexibility Score: inf
ROOT
ATOM      1  C   UNL     1       7.373  -1.392  -2.044  1.00  0.00     0.127 C 
ENDROOT
BRANCH   1   2
ATOM      2  C   UNL     1       8.787  -1.363  -2.457  1.00  0.00     0.303 C 
ATOM      3  O   UNL     1       9.231  -2.290  -3.188  1.00  0.00    -0.252 OA
BRANCH   2   4
ATOM      4  O   UNL     1       9.659  -0.336  -2.066  1.00  0.00    -0.481 OA
ATOM      5  H   UNL     1      10.538  -0.587  -1.634  1.00  0.00     0.296 HD
ENDBRANCH   2   4
ENDBRANCH   1   2
BRANCH   1   6
ATOM      6  C   UNL     1       7.217  -1.464  -0.536  1.00  0.00     0.047 C 
BRANCH   6   7
ATOM      7  C   UNL     1       6.427  -0.313  -0.027  1.00  0.00    -0.047 A 
ATOM      8  C   UNL     1       6.171   0.784  -0.837  1.00  0.00     0.004 A 
ATOM      9  C   UNL     1       5.919  -0.263   1.259  1.00  0.00     0.004 A 
ATOM     10  C   UNL     1       5.452   1.870  -0.392  1.00  0.00     0.000 A 
ATOM     11  C   UNL     1       5.199   0.825   1.703  1.00  0.00     0.000 A 
ATOM     12  C   UNL     1       4.951   1.910   0.893  1.00  0.00     0.000 A 
ENDBRANCH   6   7
ENDBRANCH   1   6
TORSDOF 4
ENDMDL
MODEL 5
REMARK VINA RESULT:      -6.6      1.874      2.866
REMARK SMILES O=C(O)CCc1ccccc1
REMARK SMILES IDX 4 1 2 2 1 3 3 4 5 6 6 7 7 8 11 9 8 10 10 11 9 12
REMARK H PARENT 3 5
REMARK Flexibility Score: inf
ROOT
ATOM      1  C   UNL     1       8.154  -1.702   1.191  1.00  0.00     0.127 C 
ENDROOT
BRANCH   1   2
ATOM      2  C   UNL     1       8.504  -2.853   0.340  1.00  0.00     0.303 C 
ATOM      3  O   UNL     1       9.204  -3.783   0.826  1.00  0.00    -0.252 OA
BRANCH   2   4
ATOM      4  O   UNL     1       8.085  -2.952  -0.994  1.00  0.00    -0.481 OA
ATOM      5  H   UNL     1       7.838  -2.104  -1.487  1.00  0.00     0.296 HD
ENDBRANCH   2   4
ENDBRANCH   1   2
BRANCH   1   6
ATOM      6  C   UNL     1       6.654  -1.562   1.378  1.00  0.00     0.047 C 
BRANCH   6   7
ATOM      7  C   UNL     1       6.164  -0.279   0.811  1.00  0.00    -0.047 A 
ATOM      8  C   UNL     1       5.410   0.594   1.582  1.00  0.00     0.004 A 
ATOM      9  C   UNL     1       6.417   0.108  -0.493  1.00  0.00     0.004 A 
ATOM     10  C   UNL     1       4.933   1.784   1.082  1.00  0.00     0.000 A 
ATOM     11  C   UNL     1       5.939   1.301  -0.991  1.00  0.00     0.000 A 
ATOM     12  C   UNL     1       5.190   2.160  -0.221  1.00  0.00     0.000 A 
ENDBRANCH   6   7
ENDBRANCH   1   6
TORSDOF 4
ENDMDL
