@<TRIPOS>MOLECULE
/home/cewinharhar/GITHUB/reincatalyze/data/processed/docking_pred/2023-Apr-25-2248_maxeplen10_maxtrainstep1000_exh16_gamma099_lrac3e-4_lrcr1e-3/7076afde4386affa59e586c5ec9b2181426a643f_ligand_2.pdbqt
 12 12 0 0 0
SMALL
GASTEIGER

@<TRIPOS>ATOM
      1  C          5.0180    1.7870    0.7180 C.3     1  UNL1        0.1270
      2  C          4.4820    1.1140    1.9140 C.2     1  UNL1        0.3030
      3  O          5.1600    0.2020    2.4590 O.2     1  UNL1       -0.2520
      4  O          3.2410    1.4560    2.4720 O.3     1  UNL1       -0.4810
      5  H          3.2260    1.9220    3.3680 H       1  UNL1        0.2960
      6  C          6.5330    1.8850    0.7440 C.3     1  UNL1        0.0470
      7  C          7.1380    1.0600   -0.3340 C.2     1  UNL1       -0.0470
      8  C          8.4760    1.2080   -0.6710 C.2     1  UNL1        0.0040
      9  C          6.4180    0.1250   -1.0550 C.2     1  UNL1        0.0040
     10  C          9.0640    0.4670   -1.6710 C.2     1  UNL1        0.0000
     11  C          7.0080   -0.6160   -2.0560 C.2     1  UNL1        0.0000
     12  C          8.3360   -0.4630   -2.3860 C.2     1  UNL1        0.0000
@<TRIPOS>BOND
     1    12    11    2
     2    12    10    1
     3    11     9    1
     4    10     8    2
     5     9     7    2
     6     8     7    1
     7     7     6    1
     8     1     6    1
     9     1     2    1
    10     2     3    2
    11     2     4    1
    12     4     5    1
