@<TRIPOS>MOLECULE
/home/cewinharhar/GITHUB/reincatalyze/data/processed/docking_pred/2023-Apr-25-2248_maxeplen10_maxtrainstep1000_exh16_gamma099_lrac3e-4_lrcr1e-3/7076afde4386affa59e586c5ec9b2181426a643f_ligand_2.pdbqt
 12 12 0 0 0
SMALL
GASTEIGER

@<TRIPOS>ATOM
      1  C          7.3730   -1.3920   -2.0440 C.3     1  UNL1        0.1270
      2  C          8.7870   -1.3630   -2.4570 C.2     1  UNL1        0.3030
      3  O          9.2310   -2.2900   -3.1880 O.2     1  UNL1       -0.2520
      4  O          9.6590   -0.3360   -2.0660 O.3     1  UNL1       -0.4810
      5  H         10.5380   -0.5870   -1.6340 H       1  UNL1        0.2960
      6  C          7.2170   -1.4640   -0.5360 C.3     1  UNL1        0.0470
      7  C          6.4270   -0.3130   -0.0270 C.2     1  UNL1       -0.0470
      8  C          6.1710    0.7840   -0.8370 C.2     1  UNL1        0.0040
      9  C          5.9190   -0.2630    1.2590 C.2     1  UNL1        0.0040
     10  C          5.4520    1.8700   -0.3920 C.2     1  UNL1        0.0000
     11  C          5.1990    0.8250    1.7030 C.2     1  UNL1        0.0000
     12  C          4.9510    1.9100    0.8930 C.2     1  UNL1        0.0000
@<TRIPOS>BOND
     1     3     2    2
     2     2     4    1
     3     2     1    1
     4     4     5    1
     5     1     6    1
     6     8    10    1
     7     8     7    2
     8     6     7    1
     9    10    12    2
    10     7     9    1
    11    12    11    1
    12     9    11    2
