@<TRIPOS>MOLECULE
/home/cewinharhar/GITHUB/reincatalyze/data/processed/docking_pred/2023-Apr-25-2248_maxeplen10_maxtrainstep1000_exh16_gamma099_lrac3e-4_lrcr1e-3/7076afde4386affa59e586c5ec9b2181426a643f_ligand_2.pdbqt
 12 12 0 0 0
SMALL
GASTEIGER

@<TRIPOS>ATOM
      1  C          8.4070   -0.6210   -2.1770 C.3     1  UNL1        0.1270
      2  C          8.4340   -1.9010   -2.9070 C.2     1  UNL1        0.3030
      3  O          9.5360   -2.4950   -3.0630 O.2     1  UNL1       -0.2520
      4  O          7.2730   -2.4860   -3.4350 O.3     1  UNL1       -0.4810
      5  H          7.1140   -2.4290   -4.4320 H       1  UNL1        0.2960
      6  C          7.0210   -0.0020   -2.1560 C.3     1  UNL1        0.0470
      7  C          6.4880    0.0630   -0.7710 C.2     1  UNL1       -0.0470
      8  C          5.8370    1.2010   -0.3150 C.2     1  UNL1        0.0040
      9  C          6.6130   -0.9800    0.1290 C.2     1  UNL1        0.0040
     10  C          5.3420    1.2950    0.9650 C.2     1  UNL1        0.0000
     11  C          6.1160   -0.8840    1.4110 C.2     1  UNL1        0.0000
     12  C          5.4730    0.2490    1.8560 C.2     1  UNL1        0.0000
@<TRIPOS>BOND
     1     5     4    1
     2     4     2    1
     3     3     2    2
     4     2     1    1
     5     1     6    1
     6     6     7    1
     7     7     8    2
     8     7     9    1
     9     8    10    1
    10     9    11    2
    11    10    12    2
    12    11    12    1
