@<TRIPOS>MOLECULE
/home/cewinharhar/GITHUB/reincatalyze/data/processed/docking_pred/2023-Apr-25-2248_maxeplen10_maxtrainstep1000_exh16_gamma099_lrac3e-4_lrcr1e-3/7076afde4386affa59e586c5ec9b2181426a643f_ligand_2.pdbqt
 12 12 0 0 0
SMALL
GASTEIGER

@<TRIPOS>ATOM
      1  C          8.3980   -0.6840   -2.0780 C.3     1  UNL1        0.1270
      2  C          8.3910   -1.9200   -2.8800 C.2     1  UNL1        0.3030
      3  O          7.2870   -2.4110   -3.2400 O.2     1  UNL1       -0.2520
      4  O          9.5740   -2.5720   -3.2590 O.3     1  UNL1       -0.4810
      5  H          9.5520   -3.1840   -4.0640 H       1  UNL1        0.2960
      6  C          7.0680    0.0460   -2.1380 C.3     1  UNL1        0.0470
      7  C          6.4770    0.1880   -0.7820 C.2     1  UNL1       -0.0470
      8  C          6.6040   -0.8260    0.1560 C.2     1  UNL1        0.0040
      9  C          5.7730    1.3110   -0.3860 C.2     1  UNL1        0.0040
     10  C          6.0600   -0.7290    1.4160 C.2     1  UNL1        0.0000
     11  C          5.2290    1.4070    0.8770 C.2     1  UNL1        0.0000
     12  C          5.3580    0.3950    1.8010 C.2     1  UNL1        0.0000
@<TRIPOS>BOND
     1     5     4    1
     2     4     2    1
     3     3     2    2
     4     2     1    1
     5     6     1    1
     6     6     7    1
     7     7     9    2
     8     7     8    1
     9     9    11    1
    10     8    10    2
    11    11    12    2
    12    10    12    1
