@<TRIPOS>MOLECULE
/home/cewinharhar/GITHUB/reincatalyze/data/processed/docking_pred/2023-Apr-25-2248_maxeplen10_maxtrainstep1000_exh16_gamma099_lrac3e-4_lrcr1e-3/7076afde4386affa59e586c5ec9b2181426a643f_ligand_2.pdbqt
 12 12 0 0 0
SMALL
GASTEIGER

@<TRIPOS>ATOM
      1  C          8.1540   -1.7020    1.1910 C.3     1  UNL1        0.1270
      2  C          8.5040   -2.8530    0.3400 C.2     1  UNL1        0.3030
      3  O          9.2040   -3.7830    0.8260 O.2     1  UNL1       -0.2520
      4  O          8.0850   -2.9520   -0.9940 O.3     1  UNL1       -0.4810
      5  H          7.8380   -2.1040   -1.4870 H       1  UNL1        0.2960
      6  C          6.6540   -1.5620    1.3780 C.3     1  UNL1        0.0470
      7  C          6.1640   -0.2790    0.8110 C.2     1  UNL1       -0.0470
      8  C          5.4100    0.5940    1.5820 C.2     1  UNL1        0.0040
      9  C          6.4170    0.1080   -0.4930 C.2     1  UNL1        0.0040
     10  C          4.9330    1.7840    1.0820 C.2     1  UNL1        0.0000
     11  C          5.9390    1.3010   -0.9910 C.2     1  UNL1        0.0000
     12  C          5.1900    2.1600   -0.2210 C.2     1  UNL1        0.0000
@<TRIPOS>BOND
     1     5     4    1
     2     4     2    1
     3    11     9    1
     4    11    12    2
     5     9     7    2
     6    12    10    1
     7     2     3    2
     8     2     1    1
     9     7     6    1
    10     7     8    1
    11    10     8    2
    12     1     6    1
