@<TRIPOS>MOLECULE
/home/cewinharhar/GITHUB/reincatalyze/data/processed/docking_pred/2023-Apr-25-2248_maxeplen10_maxtrainstep1000_exh16_gamma099_lrac3e-4_lrcr1e-3/718d515b24ba45f014f0b5b5cf87c837722ccc26_ligand_2.pdbqt
 12 12 0 0 0
SMALL
GASTEIGER

@<TRIPOS>ATOM
      1  C          5.0280    1.7290    0.7570 C.3     1  UNL1        0.1270
      2  C          4.5490    1.0290    1.9610 C.2     1  UNL1        0.3030
      3  O          5.2820    0.1510    2.4920 O.2     1  UNL1       -0.2520
      4  O          3.3030    1.3060    2.5420 O.3     1  UNL1       -0.4810
      5  H          3.1960    1.1830    3.5400 H       1  UNL1        0.2960
      6  C          6.5380    1.8820    0.7440 C.3     1  UNL1        0.0470
      7  C          7.1470    1.0720   -0.3430 C.2     1  UNL1       -0.0470
      8  C          8.4980    1.1850   -0.6390 C.2     1  UNL1        0.0040
      9  C          6.4170    0.1850   -1.1140 C.2     1  UNL1        0.0040
     10  C          9.0880    0.4560   -1.6460 C.2     1  UNL1        0.0000
     11  C          7.0100   -0.5440   -2.1220 C.2     1  UNL1        0.0000
     12  C          8.3510   -0.4250   -2.4100 C.2     1  UNL1        0.0000
@<TRIPOS>BOND
     1    12    11    2
     2    12    10    1
     3    11     9    1
     4    10     8    2
     5     9     7    2
     6     8     7    1
     7     7     6    1
     8     6     1    1
     9     1     2    1
    10     2     3    2
    11     2     4    1
    12     4     5    1
