@<TRIPOS>MOLECULE
/home/cewinharhar/GITHUB/reincatalyze/data/processed/docking_pred/2023-Apr-25-2248_maxeplen10_maxtrainstep1000_exh16_gamma099_lrac3e-4_lrcr1e-3/718d515b24ba45f014f0b5b5cf87c837722ccc26_ligand_2.pdbqt
 12 12 0 0 0
SMALL
GASTEIGER

@<TRIPOS>ATOM
      1  C          5.4590    2.6990    0.0750 C.3     1  UNL1        0.1270
      2  C          6.1780    3.7490    0.8180 C.2     1  UNL1        0.3030
      3  O          6.1620    3.7270    2.0790 O.2     1  UNL1       -0.2520
      4  O          6.8820    4.7750    0.1710 O.3     1  UNL1       -0.4810
      5  H          6.7020    5.7320    0.4440 H       1  UNL1        0.2960
      6  C          4.9360    1.6050    0.9880 C.3     1  UNL1        0.0470
      7  C          5.8180    0.4090    0.9460 C.2     1  UNL1       -0.0470
      8  C          6.5800    0.1310   -0.1800 C.2     1  UNL1        0.0040
      9  C          5.9220   -0.4820    1.9990 C.2     1  UNL1        0.0040
     10  C          7.3980   -0.9730   -0.2530 C.2     1  UNL1        0.0000
     11  C          6.7410   -1.5870    1.9230 C.2     1  UNL1        0.0000
     12  C          7.4930   -1.8570    0.8020 C.2     1  UNL1        0.0000
@<TRIPOS>BOND
     1    10     8    1
     2    10    12    2
     3     8     7    2
     4     1     2    1
     5     1     6    1
     6     4     5    1
     7     4     2    1
     8    12    11    1
     9     2     3    2
    10     7     6    1
    11     7     9    1
    12    11     9    2
