@<TRIPOS>MOLECULE
/home/cewinharhar/GITHUB/reincatalyze/data/processed/docking_pred/2023-Apr-25-2248_maxeplen10_maxtrainstep1000_exh16_gamma099_lrac3e-4_lrcr1e-3/718d515b24ba45f014f0b5b5cf87c837722ccc26_ligand_2.pdbqt
 12 12 0 0 0
SMALL
GASTEIGER

@<TRIPOS>ATOM
      1  C          8.2060   -1.6280    1.0490 C.3     1  UNL1        0.1270
      2  C          8.4980   -2.8380    0.2610 C.2     1  UNL1        0.3030
      3  O          9.1180   -3.7900    0.8080 O.2     1  UNL1       -0.2520
      4  O          8.1070   -2.9700   -1.0800 O.3     1  UNL1       -0.4810
      5  H          7.4110   -3.6650   -1.3140 H       1  UNL1        0.2960
      6  C          6.7250   -1.4800    1.3470 C.3     1  UNL1        0.0470
      7  C          6.1920   -0.2120    0.7840 C.2     1  UNL1       -0.0470
      8  C          5.4200    0.6390    1.5630 C.2     1  UNL1        0.0040
      9  C          6.4190    0.1810   -0.5220 C.2     1  UNL1        0.0040
     10  C          4.9040    1.8140    1.0690 C.2     1  UNL1        0.0000
     11  C          5.9010    1.3590   -1.0160 C.2     1  UNL1        0.0000
     12  C          5.1360    2.1970   -0.2370 C.2     1  UNL1        0.0000
@<TRIPOS>BOND
     1     5     4    1
     2     4     2    1
     3    11     9    1
     4    11    12    2
     5     9     7    2
     6    12    10    1
     7     2     3    2
     8     2     1    1
     9     7     6    1
    10     7     8    1
    11     1     6    1
    12    10     8    2
