MODEL 1
REMARK VINA RESULT:      -7.3      0.000      0.000
REMARK SMILES O=C(O)CCc1ccccc1
REMARK SMILES IDX 4 1 2 2 1 3 3 4 5 6 6 7 7 8 11 9 8 10 10 11 9 12
REMARK H PARENT 3 5
REMARK Flexibility Score: inf
ROOT
ATOM      1  C   UNL     1       8.398  -0.607  -2.204  1.00  0.00     0.127 C 
ENDROOT
BRANCH   1   2
ATOM      2  C   UNL     1       8.449  -1.895  -2.919  1.00  0.00     0.303 C 
ATOM      3  O   UNL     1       9.564  -2.461  -3.082  1.00  0.00    -0.252 OA
BRANCH   2   4
ATOM      4  O   UNL     1       7.298  -2.515  -3.425  1.00  0.00    -0.481 OA
ATOM      5  H   UNL     1       6.962  -2.241  -4.338  1.00  0.00     0.296 HD
ENDBRANCH   2   4
ENDBRANCH   1   2
BRANCH   1   6
ATOM      6  C   UNL     1       7.000  -0.015  -2.187  1.00  0.00     0.047 C 
BRANCH   6   7
ATOM      7  C   UNL     1       6.480   0.081  -0.797  1.00  0.00    -0.047 A 
ATOM      8  C   UNL     1       6.596  -0.990   0.077  1.00  0.00     0.004 A 
ATOM      9  C   UNL     1       5.856   1.214  -0.309  1.00  0.00     0.004 A 
ATOM     10  C   UNL     1       6.116  -0.936   1.366  1.00  0.00     0.000 A 
ATOM     11  C   UNL     1       5.375   1.266   0.982  1.00  0.00     0.000 A 
ATOM     12  C   UNL     1       5.493   0.199   1.843  1.00  0.00     0.000 A 
ENDBRANCH   6   7
ENDBRANCH   1   6
TORSDOF 4
ENDMDL
MODEL 2
REMARK VINA RESULT:      -7.3      0.171      1.725
REMARK SMILES O=C(O)CCc1ccccc1
REMARK SMILES IDX 4 1 2 2 1 3 3 4 5 6 6 7 7 8 11 9 8 10 10 11 9 12
REMARK H PARENT 3 5
REMARK Flexibility Score: inf
ROOT
ATOM      1  C   UNL     1       8.450  -0.686  -2.067  1.00  0.00     0.127 C 
ENDROOT
BRANCH   1   2
ATOM      2  C   UNL     1       8.431  -1.925  -2.866  1.00  0.00     0.303 C 
ATOM      3  O   UNL     1       7.321  -2.421  -3.199  1.00  0.00    -0.252 OA
BRANCH   2   4
ATOM      4  O   UNL     1       9.608  -2.571  -3.271  1.00  0.00    -0.481 OA
ATOM      5  H   UNL     1       9.796  -3.499  -2.916  1.00  0.00     0.296 HD
ENDBRANCH   2   4
ENDBRANCH   1   2
BRANCH   1   6
ATOM      6  C   UNL     1       7.121   0.046  -2.113  1.00  0.00     0.047 C 
BRANCH   6   7
ATOM      7  C   UNL     1       6.513   0.131  -0.759  1.00  0.00    -0.047 A 
ATOM      8  C   UNL     1       5.803   1.258  -0.371  1.00  0.00     0.004 A 
ATOM      9  C   UNL     1       6.626  -0.881   0.177  1.00  0.00     0.004 A 
ATOM     10  C   UNL     1       5.237   1.371   0.878  1.00  0.00     0.000 A 
ATOM     11  C   UNL     1       6.059  -0.766   1.428  1.00  0.00     0.000 A 
ATOM     12  C   UNL     1       5.357   0.356   1.805  1.00  0.00     0.000 A 
ENDBRANCH   6   7
ENDBRANCH   1   6
TORSDOF 4
ENDMDL
MODEL 3
REMARK VINA RESULT:      -6.8      3.377      5.068
REMARK SMILES O=C(O)CCc1ccccc1
REMARK SMILES IDX 4 1 2 2 1 3 3 4 5 6 6 7 7 8 11 9 8 10 10 11 9 12
REMARK H PARENT 3 5
REMARK Flexibility Score: inf
ROOT
ATOM      1  C   UNL     1       5.028   1.729   0.757  1.00  0.00     0.127 C 
ENDROOT
BRANCH   1   2
ATOM      2  C   UNL     1       4.549   1.029   1.961  1.00  0.00     0.303 C 
ATOM      3  O   UNL     1       5.282   0.151   2.492  1.00  0.00    -0.252 OA
BRANCH   2   4
ATOM      4  O   UNL     1       3.303   1.306   2.542  1.00  0.00    -0.481 OA
ATOM      5  H   UNL     1       3.196   1.183   3.540  1.00  0.00     0.296 HD
ENDBRANCH   2   4
ENDBRANCH   1   2
BRANCH   1   6
ATOM      6  C   UNL     1       6.538   1.882   0.744  1.00  0.00     0.047 C 
BRANCH   6   7
ATOM      7  C   UNL     1       7.147   1.072  -0.343  1.00  0.00    -0.047 A 
ATOM      8  C   UNL     1       8.498   1.185  -0.639  1.00  0.00     0.004 A 
ATOM      9  C   UNL     1       6.417   0.185  -1.114  1.00  0.00     0.004 A 
ATOM     10  C   UNL     1       9.088   0.456  -1.646  1.00  0.00     0.000 A 
ATOM     11  C   UNL     1       7.010  -0.544  -2.122  1.00  0.00     0.000 A 
ATOM     12  C   UNL     1       8.351  -0.425  -2.410  1.00  0.00     0.000 A 
ENDBRANCH   6   7
ENDBRANCH   1   6
TORSDOF 4
ENDMDL
MODEL 4
REMARK VINA RESULT:      -6.6      1.881      2.908
REMARK SMILES O=C(O)CCc1ccccc1
REMARK SMILES IDX 4 1 2 2 1 3 3 4 5 6 6 7 7 8 11 9 8 10 10 11 9 12
REMARK H PARENT 3 5
REMARK Flexibility Score: inf
ROOT
ATOM      1  C   UNL     1       8.206  -1.628   1.049  1.00  0.00     0.127 C 
ENDROOT
BRANCH   1   2
ATOM      2  C   UNL     1       8.498  -2.838   0.261  1.00  0.00     0.303 C 
ATOM      3  O   UNL     1       9.118  -3.790   0.808  1.00  0.00    -0.252 OA
BRANCH   2   4
ATOM      4  O   UNL     1       8.107  -2.970  -1.080  1.00  0.00    -0.481 OA
ATOM      5  H   UNL     1       7.411  -3.665  -1.314  1.00  0.00     0.296 HD
ENDBRANCH   2   4
ENDBRANCH   1   2
BRANCH   1   6
ATOM      6  C   UNL     1       6.725  -1.480   1.347  1.00  0.00     0.047 C 
BRANCH   6   7
ATOM      7  C   UNL     1       6.192  -0.212   0.784  1.00  0.00    -0.047 A 
ATOM      8  C   UNL     1       5.420   0.639   1.563  1.00  0.00     0.004 A 
ATOM      9  C   UNL     1       6.419   0.181  -0.522  1.00  0.00     0.004 A 
ATOM     10  C   UNL     1       4.904   1.814   1.069  1.00  0.00     0.000 A 
ATOM     11  C   UNL     1       5.901   1.359  -1.016  1.00  0.00     0.000 A 
ATOM     12  C   UNL     1       5.136   2.197  -0.237  1.00  0.00     0.000 A 
ENDBRANCH   6   7
ENDBRANCH   1   6
TORSDOF 4
ENDMDL
MODEL 5
REMARK VINA RESULT:      -6.6      3.803      4.982
REMARK SMILES O=C(O)CCc1ccccc1
REMARK SMILES IDX 4 1 2 2 1 3 3 4 5 6 6 7 7 8 11 9 8 10 10 11 9 12
REMARK H PARENT 3 5
REMARK Flexibility Score: inf
ROOT
ATOM      1  C   UNL     1       5.459   2.699   0.075  1.00  0.00     0.127 C 
ENDROOT
BRANCH   1   2
ATOM      2  C   UNL     1       6.178   3.749   0.818  1.00  0.00     0.303 C 
ATOM      3  O   UNL     1       6.162   3.727   2.079  1.00  0.00    -0.252 OA
BRANCH   2   4
ATOM      4  O   UNL     1       6.882   4.775   0.171  1.00  0.00    -0.481 OA
ATOM      5  H   UNL     1       6.702   5.732   0.444  1.00  0.00     0.296 HD
ENDBRANCH   2   4
ENDBRANCH   1   2
BRANCH   1   6
ATOM      6  C   UNL     1       4.936   1.605   0.988  1.00  0.00     0.047 C 
BRANCH   6   7
ATOM      7  C   UNL     1       5.818   0.409   0.946  1.00  0.00    -0.047 A 
ATOM      8  C   UNL     1       6.580   0.131  -0.180  1.00  0.00     0.004 A 
ATOM      9  C   UNL     1       5.922  -0.482   1.999  1.00  0.00     0.004 A 
ATOM     10  C   UNL     1       7.398  -0.973  -0.253  1.00  0.00     0.000 A 
ATOM     11  C   UNL     1       6.741  -1.587   1.923  1.00  0.00     0.000 A 
ATOM     12  C   UNL     1       7.493  -1.857   0.802  1.00  0.00     0.000 A 
ENDBRANCH   6   7
ENDBRANCH   1   6
TORSDOF 4
ENDMDL
