@<TRIPOS>MOLECULE
/home/cewinharhar/GITHUB/reincatalyze/data/processed/docking_pred/2023-Apr-25-2248_maxeplen10_maxtrainstep1000_exh16_gamma099_lrac3e-4_lrcr1e-3/718d515b24ba45f014f0b5b5cf87c837722ccc26_ligand_2.pdbqt
 12 12 0 0 0
SMALL
GASTEIGER

@<TRIPOS>ATOM
      1  C          8.4500   -0.6860   -2.0670 C.3     1  UNL1        0.1270
      2  C          8.4310   -1.9250   -2.8660 C.2     1  UNL1        0.3030
      3  O          7.3210   -2.4210   -3.1990 O.2     1  UNL1       -0.2520
      4  O          9.6080   -2.5710   -3.2710 O.3     1  UNL1       -0.4810
      5  H          9.7960   -3.4990   -2.9160 H       1  UNL1        0.2960
      6  C          7.1210    0.0460   -2.1130 C.3     1  UNL1        0.0470
      7  C          6.5130    0.1310   -0.7590 C.2     1  UNL1       -0.0470
      8  C          5.8030    1.2580   -0.3710 C.2     1  UNL1        0.0040
      9  C          6.6260   -0.8810    0.1770 C.2     1  UNL1        0.0040
     10  C          5.2370    1.3710    0.8780 C.2     1  UNL1        0.0000
     11  C          6.0590   -0.7660    1.4280 C.2     1  UNL1        0.0000
     12  C          5.3570    0.3560    1.8050 C.2     1  UNL1        0.0000
@<TRIPOS>BOND
     1     4     5    1
     2     4     2    1
     3     3     2    2
     4     2     1    1
     5     6     1    1
     6     6     7    1
     7     7     8    2
     8     7     9    1
     9     8    10    1
    10     9    11    2
    11    10    12    2
    12    11    12    1
