@<TRIPOS>MOLECULE
/home/cewinharhar/GITHUB/reincatalyze/data/processed/docking_pred/2023-Apr-25-2248_maxeplen10_maxtrainstep1000_exh16_gamma099_lrac3e-4_lrcr1e-3/718d515b24ba45f014f0b5b5cf87c837722ccc26_ligand_2.pdbqt
 12 12 0 0 0
SMALL
GASTEIGER

@<TRIPOS>ATOM
      1  C          8.3980   -0.6070   -2.2040 C.3     1  UNL1        0.1270
      2  C          8.4490   -1.8950   -2.9190 C.2     1  UNL1        0.3030
      3  O          9.5640   -2.4610   -3.0820 O.2     1  UNL1       -0.2520
      4  O          7.2980   -2.5150   -3.4250 O.3     1  UNL1       -0.4810
      5  H          6.9620   -2.2410   -4.3380 H       1  UNL1        0.2960
      6  C          7.0000   -0.0150   -2.1870 C.3     1  UNL1        0.0470
      7  C          6.4800    0.0810   -0.7970 C.2     1  UNL1       -0.0470
      8  C          6.5960   -0.9900    0.0770 C.2     1  UNL1        0.0040
      9  C          5.8560    1.2140   -0.3090 C.2     1  UNL1        0.0040
     10  C          6.1160   -0.9360    1.3660 C.2     1  UNL1        0.0000
     11  C          5.3750    1.2660    0.9820 C.2     1  UNL1        0.0000
     12  C          5.4930    0.1990    1.8430 C.2     1  UNL1        0.0000
@<TRIPOS>BOND
     1     5     4    1
     2     4     2    1
     3     3     2    2
     4     2     1    1
     5     1     6    1
     6     6     7    1
     7     7     9    2
     8     7     8    1
     9     9    11    1
    10     8    10    2
    11    11    12    2
    12    10    12    1
