@<TRIPOS>MOLECULE
/home/cewinharhar/GITHUB/reincatalyze/data/processed/docking_pred/2023-Apr-25-2248_maxeplen10_maxtrainstep1000_exh16_gamma099_lrac3e-4_lrcr1e-3/72c4800fcc396c08a923544a0defa9269110c5e0_ligand_2.pdbqt
 12 12 0 0 0
SMALL
GASTEIGER

@<TRIPOS>ATOM
      1  C          8.2880    0.2370   -2.1530 C.3     1  UNL1        0.1270
      2  C          9.4220    0.3780   -1.2230 C.2     1  UNL1        0.3030
      3  O          9.4850   -0.3790   -0.2160 O.2     1  UNL1       -0.2520
      4  O         10.4370    1.3250   -1.4180 O.3     1  UNL1       -0.4810
      5  H         10.6360    1.9820   -0.6760 H       1  UNL1        0.2960
      6  C          7.1620   -0.5930   -1.5640 C.3     1  UNL1        0.0470
      7  C          6.3720    0.2000   -0.5860 C.2     1  UNL1       -0.0470
      8  C          5.8330    1.4280   -0.9410 C.2     1  UNL1        0.0040
      9  C          6.1410   -0.2250    0.7090 C.2     1  UNL1        0.0040
     10  C          5.1060    2.1910   -0.0560 C.2     1  UNL1        0.0000
     11  C          5.4120    0.5390    1.5950 C.2     1  UNL1        0.0000
     12  C          4.8820    1.7580    1.2350 C.2     1  UNL1        0.0000
@<TRIPOS>BOND
     1     1     6    1
     2     1     2    1
     3     6     7    1
     4     4     2    1
     5     4     5    1
     6     2     3    2
     7     8     7    2
     8     8    10    1
     9     7     9    1
    10    10    12    2
    11     9    11    2
    12    12    11    1
