MODEL 1
REMARK VINA RESULT:      -7.3      0.000      0.000
REMARK SMILES O=C(O)CCc1ccccc1
REMARK SMILES IDX 4 1 2 2 1 3 3 4 5 6 6 7 7 8 11 9 8 10 10 11 9 12
REMARK H PARENT 3 5
REMARK Flexibility Score: inf
ROOT
ATOM      1  C   UNL     1       8.432  -0.671  -2.102  1.00  0.00     0.127 C 
ENDROOT
BRANCH   1   2
ATOM      2  C   UNL     1       8.460  -1.914  -2.895  1.00  0.00     0.303 C 
ATOM      3  O   UNL     1       9.563  -2.494  -3.085  1.00  0.00    -0.252 OA
BRANCH   2   4
ATOM      4  O   UNL     1       7.299  -2.476  -3.444  1.00  0.00    -0.481 OA
ATOM      5  H   UNL     1       6.420  -1.995  -3.312  1.00  0.00     0.296 HD
ENDBRANCH   2   4
ENDBRANCH   1   2
BRANCH   1   6
ATOM      6  C   UNL     1       7.065  -0.012  -2.116  1.00  0.00     0.047 C 
BRANCH   6   7
ATOM      7  C   UNL     1       6.498   0.068  -0.745  1.00  0.00    -0.047 A 
ATOM      8  C   UNL     1       5.835   1.210  -0.318  1.00  0.00     0.004 A 
ATOM      9  C   UNL     1       6.604  -0.964   0.170  1.00  0.00     0.004 A 
ATOM     10  C   UNL     1       5.309   1.319   0.948  1.00  0.00     0.000 A 
ATOM     11  C   UNL     1       6.076  -0.853   1.439  1.00  0.00     0.000 A 
ATOM     12  C   UNL     1       5.421   0.284   1.855  1.00  0.00     0.000 A 
ENDBRANCH   6   7
ENDBRANCH   1   6
TORSDOF 4
ENDMDL
MODEL 2
REMARK VINA RESULT:      -7.3      0.073      1.422
REMARK SMILES O=C(O)CCc1ccccc1
REMARK SMILES IDX 4 1 2 2 1 3 3 4 5 6 6 7 7 8 11 9 8 10 10 11 9 12
REMARK H PARENT 3 5
REMARK Flexibility Score: inf
ROOT
ATOM      1  C   UNL     1       8.418  -0.633  -2.140  1.00  0.00     0.127 C 
ENDROOT
BRANCH   1   2
ATOM      2  C   UNL     1       8.477  -1.903  -2.885  1.00  0.00     0.303 C 
ATOM      3  O   UNL     1       9.592  -2.471  -3.039  1.00  0.00    -0.252 OA
BRANCH   2   4
ATOM      4  O   UNL     1       7.333  -2.505  -3.429  1.00  0.00    -0.481 OA
ATOM      5  H   UNL     1       6.470  -2.468  -2.903  1.00  0.00     0.296 HD
ENDBRANCH   2   4
ENDBRANCH   1   2
BRANCH   1   6
ATOM      6  C   UNL     1       7.035  -0.008  -2.180  1.00  0.00     0.047 C 
BRANCH   6   7
ATOM      7  C   UNL     1       6.474   0.133  -0.811  1.00  0.00    -0.047 A 
ATOM      8  C   UNL     1       6.586  -0.899   0.109  1.00  0.00     0.004 A 
ATOM      9  C   UNL     1       5.813   1.271  -0.387  1.00  0.00     0.004 A 
ATOM     10  C   UNL     1       6.068  -0.804   1.381  1.00  0.00     0.000 A 
ATOM     11  C   UNL     1       5.295   1.365   0.887  1.00  0.00     0.000 A 
ATOM     12  C   UNL     1       5.409   0.336   1.794  1.00  0.00     0.000 A 
ENDBRANCH   6   7
ENDBRANCH   1   6
TORSDOF 4
ENDMDL
MODEL 3
REMARK VINA RESULT:      -6.9      0.687      1.881
REMARK SMILES O=C(O)CCc1ccccc1
REMARK SMILES IDX 4 1 2 2 1 3 3 4 5 6 6 7 7 8 11 9 8 10 10 11 9 12
REMARK H PARENT 3 5
REMARK Flexibility Score: inf
ROOT
ATOM      1  C   UNL     1       8.351  -0.726  -2.061  1.00  0.00     0.127 C 
ENDROOT
BRANCH   1   2
ATOM      2  C   UNL     1       8.369  -1.943  -2.891  1.00  0.00     0.303 C 
ATOM      3  O   UNL     1       7.277  -2.418  -3.306  1.00  0.00    -0.252 OA
BRANCH   2   4
ATOM      4  O   UNL     1       9.562  -2.594  -3.239  1.00  0.00    -0.481 OA
ATOM      5  H   UNL     1      10.046  -2.301  -4.077  1.00  0.00     0.296 HD
ENDBRANCH   2   4
ENDBRANCH   1   2
BRANCH   1   6
ATOM      6  C   UNL     1       8.047  -1.029  -0.605  1.00  0.00     0.047 C 
BRANCH   6   7
ATOM      7  C   UNL     1       6.987  -0.127  -0.083  1.00  0.00    -0.047 A 
ATOM      8  C   UNL     1       6.476  -0.301   1.195  1.00  0.00     0.004 A 
ATOM      9  C   UNL     1       6.451   0.908  -0.828  1.00  0.00     0.004 A 
ATOM     10  C   UNL     1       5.487   0.510   1.703  1.00  0.00     0.000 A 
ATOM     11  C   UNL     1       5.461   1.719  -0.318  1.00  0.00     0.000 A 
ATOM     12  C   UNL     1       4.958   1.539   0.951  1.00  0.00     0.000 A 
ENDBRANCH   6   7
ENDBRANCH   1   6
TORSDOF 4
ENDMDL
MODEL 4
REMARK VINA RESULT:      -6.8      3.398      5.083
REMARK SMILES O=C(O)CCc1ccccc1
REMARK SMILES IDX 4 1 2 2 1 3 3 4 5 6 6 7 7 8 11 9 8 10 10 11 9 12
REMARK H PARENT 3 5
REMARK Flexibility Score: inf
ROOT
ATOM      1  C   UNL     1       5.009   1.780   0.733  1.00  0.00     0.127 C 
ENDROOT
BRANCH   1   2
ATOM      2  C   UNL     1       4.471   1.109   1.930  1.00  0.00     0.303 C 
ATOM      3  O   UNL     1       5.148   0.197   2.477  1.00  0.00    -0.252 OA
BRANCH   2   4
ATOM      4  O   UNL     1       3.228   1.451   2.483  1.00  0.00    -0.481 OA
ATOM      5  H   UNL     1       2.662   0.719   2.889  1.00  0.00     0.296 HD
ENDBRANCH   2   4
ENDBRANCH   1   2
BRANCH   1   6
ATOM      6  C   UNL     1       6.524   1.873   0.761  1.00  0.00     0.047 C 
BRANCH   6   7
ATOM      7  C   UNL     1       7.128   1.063  -0.329  1.00  0.00    -0.047 A 
ATOM      8  C   UNL     1       8.465   1.215  -0.667  1.00  0.00     0.004 A 
ATOM      9  C   UNL     1       6.407   0.137  -1.060  1.00  0.00     0.004 A 
ATOM     10  C   UNL     1       9.051   0.487  -1.677  1.00  0.00     0.000 A 
ATOM     11  C   UNL     1       6.995  -0.591  -2.072  1.00  0.00     0.000 A 
ATOM     12  C   UNL     1       8.322  -0.433  -2.402  1.00  0.00     0.000 A 
ENDBRANCH   6   7
ENDBRANCH   1   6
TORSDOF 4
ENDMDL
MODEL 5
REMARK VINA RESULT:      -6.7      1.956      2.339
REMARK SMILES O=C(O)CCc1ccccc1
REMARK SMILES IDX 4 1 2 2 1 3 3 4 5 6 6 7 7 8 11 9 8 10 10 11 9 12
REMARK H PARENT 3 5
REMARK Flexibility Score: inf
ROOT
ATOM      1  C   UNL     1       8.288   0.237  -2.153  1.00  0.00     0.127 C 
ENDROOT
BRANCH   1   2
ATOM      2  C   UNL     1       9.422   0.378  -1.223  1.00  0.00     0.303 C 
ATOM      3  O   UNL     1       9.485  -0.379  -0.216  1.00  0.00    -0.252 OA
BRANCH   2   4
ATOM      4  O   UNL     1      10.437   1.325  -1.418  1.00  0.00    -0.481 OA
ATOM      5  H   UNL     1      10.636   1.982  -0.676  1.00  0.00     0.296 HD
ENDBRANCH   2   4
ENDBRANCH   1   2
BRANCH   1   6
ATOM      6  C   UNL     1       7.162  -0.593  -1.564  1.00  0.00     0.047 C 
BRANCH   6   7
ATOM      7  C   UNL     1       6.372   0.200  -0.586  1.00  0.00    -0.047 A 
ATOM      8  C   UNL     1       5.833   1.428  -0.941  1.00  0.00     0.004 A 
ATOM      9  C   UNL     1       6.141  -0.225   0.709  1.00  0.00     0.004 A 
ATOM     10  C   UNL     1       5.106   2.191  -0.056  1.00  0.00     0.000 A 
ATOM     11  C   UNL     1       5.412   0.539   1.595  1.00  0.00     0.000 A 
ATOM     12  C   UNL     1       4.882   1.758   1.235  1.00  0.00     0.000 A 
ENDBRANCH   6   7
ENDBRANCH   1   6
TORSDOF 4
ENDMDL
