@<TRIPOS>MOLECULE
/home/cewinharhar/GITHUB/reincatalyze/data/processed/docking_pred/2023-Apr-25-2248_maxeplen10_maxtrainstep1000_exh16_gamma099_lrac3e-4_lrcr1e-3/72c4800fcc396c08a923544a0defa9269110c5e0_ligand_2.pdbqt
 12 12 0 0 0
SMALL
GASTEIGER

@<TRIPOS>ATOM
      1  C          5.0090    1.7800    0.7330 C.3     1  UNL1        0.1270
      2  C          4.4710    1.1090    1.9300 C.2     1  UNL1        0.3030
      3  O          5.1480    0.1970    2.4770 O.2     1  UNL1       -0.2520
      4  O          3.2280    1.4510    2.4830 O.3     1  UNL1       -0.4810
      5  H          2.6620    0.7190    2.8890 H       1  UNL1        0.2960
      6  C          6.5240    1.8730    0.7610 C.3     1  UNL1        0.0470
      7  C          7.1280    1.0630   -0.3290 C.2     1  UNL1       -0.0470
      8  C          8.4650    1.2150   -0.6670 C.2     1  UNL1        0.0040
      9  C          6.4070    0.1370   -1.0600 C.2     1  UNL1        0.0040
     10  C          9.0510    0.4870   -1.6770 C.2     1  UNL1        0.0000
     11  C          6.9950   -0.5910   -2.0720 C.2     1  UNL1        0.0000
     12  C          8.3220   -0.4330   -2.4020 C.2     1  UNL1        0.0000
@<TRIPOS>BOND
     1    12    11    2
     2    12    10    1
     3    11     9    1
     4    10     8    2
     5     9     7    2
     6     8     7    1
     7     7     6    1
     8     1     6    1
     9     1     2    1
    10     2     3    2
    11     2     4    1
    12     4     5    1
