@<TRIPOS>MOLECULE
/home/cewinharhar/GITHUB/reincatalyze/data/processed/docking_pred/2023-Apr-25-2248_maxeplen10_maxtrainstep1000_exh16_gamma099_lrac3e-4_lrcr1e-3/72c4800fcc396c08a923544a0defa9269110c5e0_ligand_2.pdbqt
 12 12 0 0 0
SMALL
GASTEIGER

@<TRIPOS>ATOM
      1  C          8.4180   -0.6330   -2.1400 C.3     1  UNL1        0.1270
      2  C          8.4770   -1.9030   -2.8850 C.2     1  UNL1        0.3030
      3  O          9.5920   -2.4710   -3.0390 O.2     1  UNL1       -0.2520
      4  O          7.3330   -2.5050   -3.4290 O.3     1  UNL1       -0.4810
      5  H          6.4700   -2.4680   -2.9030 H       1  UNL1        0.2960
      6  C          7.0350   -0.0080   -2.1800 C.3     1  UNL1        0.0470
      7  C          6.4740    0.1330   -0.8110 C.2     1  UNL1       -0.0470
      8  C          6.5860   -0.8990    0.1090 C.2     1  UNL1        0.0040
      9  C          5.8130    1.2710   -0.3870 C.2     1  UNL1        0.0040
     10  C          6.0680   -0.8040    1.3810 C.2     1  UNL1        0.0000
     11  C          5.2950    1.3650    0.8870 C.2     1  UNL1        0.0000
     12  C          5.4090    0.3360    1.7940 C.2     1  UNL1        0.0000
@<TRIPOS>BOND
     1     4     5    1
     2     4     2    1
     3     3     2    2
     4     2     1    1
     5     6     1    1
     6     6     7    1
     7     7     9    2
     8     7     8    1
     9     9    11    1
    10     8    10    2
    11    11    12    2
    12    10    12    1
