@<TRIPOS>MOLECULE
/home/cewinharhar/GITHUB/reincatalyze/data/processed/docking_pred/2023-Apr-25-2248_maxeplen10_maxtrainstep1000_exh16_gamma099_lrac3e-4_lrcr1e-3/72c4800fcc396c08a923544a0defa9269110c5e0_ligand_2.pdbqt
 12 12 0 0 0
SMALL
GASTEIGER

@<TRIPOS>ATOM
      1  C          8.3510   -0.7260   -2.0610 C.3     1  UNL1        0.1270
      2  C          8.3690   -1.9430   -2.8910 C.2     1  UNL1        0.3030
      3  O          7.2770   -2.4180   -3.3060 O.2     1  UNL1       -0.2520
      4  O          9.5620   -2.5940   -3.2390 O.3     1  UNL1       -0.4810
      5  H         10.0460   -2.3010   -4.0770 H       1  UNL1        0.2960
      6  C          8.0470   -1.0290   -0.6050 C.3     1  UNL1        0.0470
      7  C          6.9870   -0.1270   -0.0830 C.2     1  UNL1       -0.0470
      8  C          6.4760   -0.3010    1.1950 C.2     1  UNL1        0.0040
      9  C          6.4510    0.9080   -0.8280 C.2     1  UNL1        0.0040
     10  C          5.4870    0.5100    1.7030 C.2     1  UNL1        0.0000
     11  C          5.4610    1.7190   -0.3180 C.2     1  UNL1        0.0000
     12  C          4.9580    1.5390    0.9510 C.2     1  UNL1        0.0000
@<TRIPOS>BOND
     1     5     4    1
     2     3     2    2
     3     4     2    1
     4     2     1    1
     5     1     6    1
     6     9    11    1
     7     9     7    2
     8     6     7    1
     9    11    12    2
    10     7     8    1
    11    12    10    1
    12     8    10    2
