MODEL 1
REMARK VINA RESULT:      -7.3      0.000      0.000
REMARK SMILES O=C(O)CCc1ccccc1
REMARK SMILES IDX 4 1 2 2 1 3 3 4 5 6 6 7 7 8 11 9 8 10 10 11 9 12
REMARK H PARENT 3 5
REMARK Flexibility Score: inf
ROOT
ATOM      1  C   UNL     1       8.382  -0.762  -1.999  1.00  0.00     0.127 C 
ENDROOT
BRANCH   1   2
ATOM      2  C   UNL     1       8.411  -1.953  -2.866  1.00  0.00     0.303 C 
ATOM      3  O   UNL     1       9.515  -2.523  -3.086  1.00  0.00    -0.252 OA
BRANCH   2   4
ATOM      4  O   UNL     1       7.252  -2.479  -3.455  1.00  0.00    -0.481 OA
ATOM      5  H   UNL     1       7.106  -3.479  -3.426  1.00  0.00     0.296 HD
ENDBRANCH   2   4
ENDBRANCH   1   2
BRANCH   1   6
ATOM      6  C   UNL     1       7.042  -0.049  -2.050  1.00  0.00     0.047 C 
BRANCH   6   7
ATOM      7  C   UNL     1       6.460   0.089  -0.689  1.00  0.00    -0.047 A 
ATOM      8  C   UNL     1       6.552  -0.948   0.228  1.00  0.00     0.004 A 
ATOM      9  C   UNL     1       5.800   1.229  -0.270  1.00  0.00     0.004 A 
ATOM     10  C   UNL     1       6.014  -0.855   1.491  1.00  0.00     0.000 A 
ATOM     11  C   UNL     1       5.262   1.320   0.996  1.00  0.00     0.000 A 
ATOM     12  C   UNL     1       5.356   0.287   1.900  1.00  0.00     0.000 A 
ENDBRANCH   6   7
ENDBRANCH   1   6
TORSDOF 4
ENDMDL
MODEL 2
REMARK VINA RESULT:      -7.2      0.160      1.727
REMARK SMILES O=C(O)CCc1ccccc1
REMARK SMILES IDX 4 1 2 2 1 3 3 4 5 6 6 7 7 8 11 9 8 10 10 11 9 12
REMARK H PARENT 3 5
REMARK Flexibility Score: inf
ROOT
ATOM      1  C   UNL     1       8.394  -0.590  -2.196  1.00  0.00     0.127 C 
ENDROOT
BRANCH   1   2
ATOM      2  C   UNL     1       8.411  -1.882  -2.905  1.00  0.00     0.303 C 
ATOM      3  O   UNL     1       7.315  -2.415  -3.231  1.00  0.00    -0.252 OA
BRANCH   2   4
ATOM      4  O   UNL     1       9.605  -2.540  -3.232  1.00  0.00    -0.481 OA
ATOM      5  H   UNL     1       9.560  -3.508  -3.519  1.00  0.00     0.296 HD
ENDBRANCH   2   4
ENDBRANCH   1   2
BRANCH   1   6
ATOM      6  C   UNL     1       7.005   0.021  -2.147  1.00  0.00     0.047 C 
BRANCH   6   7
ATOM      7  C   UNL     1       6.488   0.058  -0.754  1.00  0.00    -0.047 A 
ATOM      8  C   UNL     1       5.853   1.190  -0.265  1.00  0.00     0.004 A 
ATOM      9  C   UNL     1       6.614  -1.006   0.120  1.00  0.00     0.004 A 
ATOM     10  C   UNL     1       5.372   1.260   1.022  1.00  0.00     0.000 A 
ATOM     11  C   UNL     1       6.132  -0.935   1.409  1.00  0.00     0.000 A 
ATOM     12  C   UNL     1       5.505   0.192   1.887  1.00  0.00     0.000 A 
ENDBRANCH   6   7
ENDBRANCH   1   6
TORSDOF 4
ENDMDL
MODEL 3
REMARK VINA RESULT:      -6.8      3.401      5.090
REMARK SMILES O=C(O)CCc1ccccc1
REMARK SMILES IDX 4 1 2 2 1 3 3 4 5 6 6 7 7 8 11 9 8 10 10 11 9 12
REMARK H PARENT 3 5
REMARK Flexibility Score: inf
ROOT
ATOM      1  C   UNL     1       5.051   1.793   0.745  1.00  0.00     0.127 C 
ENDROOT
BRANCH   1   2
ATOM      2  C   UNL     1       4.491   1.120   1.931  1.00  0.00     0.303 C 
ATOM      3  O   UNL     1       5.156   0.204   2.486  1.00  0.00    -0.252 OA
BRANCH   2   4
ATOM      4  O   UNL     1       3.241   1.465   2.466  1.00  0.00    -0.481 OA
ATOM      5  H   UNL     1       2.741   0.775   3.010  1.00  0.00     0.296 HD
ENDBRANCH   2   4
ENDBRANCH   1   2
BRANCH   1   6
ATOM      6  C   UNL     1       6.566   1.869   0.791  1.00  0.00     0.047 C 
BRANCH   6   7
ATOM      7  C   UNL     1       7.172   1.091  -0.322  1.00  0.00    -0.047 A 
ATOM      8  C   UNL     1       6.411   0.190  -1.052  1.00  0.00     0.004 A 
ATOM      9  C   UNL     1       8.502   1.211  -0.680  1.00  0.00     0.004 A 
ATOM     10  C   UNL     1       6.945  -0.552  -2.080  1.00  0.00     0.000 A 
ATOM     11  C   UNL     1       9.036   0.467  -1.711  1.00  0.00     0.000 A 
ATOM     12  C   UNL     1       8.274  -0.427  -2.430  1.00  0.00     0.000 A 
ENDBRANCH   6   7
ENDBRANCH   1   6
TORSDOF 4
ENDMDL
MODEL 4
REMARK VINA RESULT:      -6.6      1.890      2.837
REMARK SMILES O=C(O)CCc1ccccc1
REMARK SMILES IDX 4 1 2 2 1 3 3 4 5 6 6 7 7 8 11 9 8 10 10 11 9 12
REMARK H PARENT 3 5
REMARK Flexibility Score: inf
ROOT
ATOM      1  C   UNL     1       8.115  -1.668   1.201  1.00  0.00     0.127 C 
ENDROOT
BRANCH   1   2
ATOM      2  C   UNL     1       8.508  -2.822   0.372  1.00  0.00     0.303 C 
ATOM      3  O   UNL     1       9.232  -3.721   0.878  1.00  0.00    -0.252 OA
BRANCH   2   4
ATOM      4  O   UNL     1       8.101  -2.956  -0.963  1.00  0.00    -0.481 OA
ATOM      5  H   UNL     1       7.764  -2.137  -1.451  1.00  0.00     0.296 HD
ENDBRANCH   2   4
ENDBRANCH   1   2
BRANCH   1   6
ATOM      6  C   UNL     1       6.609  -1.564   1.362  1.00  0.00     0.047 C 
BRANCH   6   7
ATOM      7  C   UNL     1       6.104  -0.273   0.827  1.00  0.00    -0.047 A 
ATOM      8  C   UNL     1       6.378   0.107  -0.480  1.00  0.00     0.004 A 
ATOM      9  C   UNL     1       5.357   0.611   1.584  1.00  0.00     0.004 A 
ATOM     10  C   UNL     1       5.934   1.301  -1.002  1.00  0.00     0.000 A 
ATOM     11  C   UNL     1       4.913   1.806   1.059  1.00  0.00     0.000 A 
ATOM     12  C   UNL     1       5.190   2.176  -0.237  1.00  0.00     0.000 A 
ENDBRANCH   6   7
ENDBRANCH   1   6
TORSDOF 4
ENDMDL
MODEL 5
REMARK VINA RESULT:      -6.6      2.040      2.729
REMARK SMILES O=C(O)CCc1ccccc1
REMARK SMILES IDX 4 1 2 2 1 3 3 4 5 6 6 7 7 8 11 9 8 10 10 11 9 12
REMARK H PARENT 3 5
REMARK Flexibility Score: inf
ROOT
ATOM      1  C   UNL     1       8.469   0.570  -1.759  1.00  0.00     0.127 C 
ENDROOT
BRANCH   1   2
ATOM      2  C   UNL     1       9.608   0.258  -0.877  1.00  0.00     0.303 C 
ATOM      3  O   UNL     1       9.432  -0.523   0.097  1.00  0.00    -0.252 OA
BRANCH   2   4
ATOM      4  O   UNL     1      10.884   0.800  -1.084  1.00  0.00    -0.481 OA
ATOM      5  H   UNL     1      11.052   1.760  -0.814  1.00  0.00     0.296 HD
ENDBRANCH   2   4
ENDBRANCH   1   2
BRANCH   1   6
ATOM      6  C   UNL     1       7.272  -0.324  -1.489  1.00  0.00     0.047 C 
BRANCH   6   7
ATOM      7  C   UNL     1       6.398   0.260  -0.438  1.00  0.00    -0.047 A 
ATOM      8  C   UNL     1       5.791   1.493  -0.627  1.00  0.00     0.004 A 
ATOM      9  C   UNL     1       6.152  -0.372   0.767  1.00  0.00     0.004 A 
ATOM     10  C   UNL     1       4.986   2.066   0.330  1.00  0.00     0.000 A 
ATOM     11  C   UNL     1       5.344   0.202   1.725  1.00  0.00     0.000 A 
ATOM     12  C   UNL     1       4.747   1.427   1.531  1.00  0.00     0.000 A 
ENDBRANCH   6   7
ENDBRANCH   1   6
TORSDOF 4
ENDMDL
