@<TRIPOS>MOLECULE
/home/cewinharhar/GITHUB/reincatalyze/data/processed/docking_pred/2023-Apr-25-2248_maxeplen10_maxtrainstep1000_exh16_gamma099_lrac3e-4_lrcr1e-3/73f03501d88ed0f960f592fe5f6124e73644cb01_ligand_2.pdbqt
 12 12 0 0 0
SMALL
GASTEIGER

@<TRIPOS>ATOM
      1  C          8.4690    0.5700   -1.7590 C.3     1  UNL1        0.1270
      2  C          9.6080    0.2580   -0.8770 C.2     1  UNL1        0.3030
      3  O          9.4320   -0.5230    0.0970 O.2     1  UNL1       -0.2520
      4  O         10.8840    0.8000   -1.0840 O.3     1  UNL1       -0.4810
      5  H         11.0520    1.7600   -0.8140 H       1  UNL1        0.2960
      6  C          7.2720   -0.3240   -1.4890 C.3     1  UNL1        0.0470
      7  C          6.3980    0.2600   -0.4380 C.2     1  UNL1       -0.0470
      8  C          5.7910    1.4930   -0.6270 C.2     1  UNL1        0.0040
      9  C          6.1520   -0.3720    0.7670 C.2     1  UNL1        0.0040
     10  C          4.9860    2.0660    0.3300 C.2     1  UNL1        0.0000
     11  C          5.3440    0.2020    1.7250 C.2     1  UNL1        0.0000
     12  C          4.7470    1.4270    1.5310 C.2     1  UNL1        0.0000
@<TRIPOS>BOND
     1     1     6    1
     2     1     2    1
     3     6     7    1
     4     4     2    1
     5     4     5    1
     6     2     3    2
     7     8     7    2
     8     8    10    1
     9     7     9    1
    10    10    12    2
    11     9    11    2
    12    12    11    1
