@<TRIPOS>MOLECULE
/home/cewinharhar/GITHUB/reincatalyze/data/processed/docking_pred/2023-Apr-25-2248_maxeplen10_maxtrainstep1000_exh16_gamma099_lrac3e-4_lrcr1e-3/73f03501d88ed0f960f592fe5f6124e73644cb01_ligand_2.pdbqt
 12 12 0 0 0
SMALL
GASTEIGER

@<TRIPOS>ATOM
      1  C          8.1150   -1.6680    1.2010 C.3     1  UNL1        0.1270
      2  C          8.5080   -2.8220    0.3720 C.2     1  UNL1        0.3030
      3  O          9.2320   -3.7210    0.8780 O.2     1  UNL1       -0.2520
      4  O          8.1010   -2.9560   -0.9630 O.3     1  UNL1       -0.4810
      5  H          7.7640   -2.1370   -1.4510 H       1  UNL1        0.2960
      6  C          6.6090   -1.5640    1.3620 C.3     1  UNL1        0.0470
      7  C          6.1040   -0.2730    0.8270 C.2     1  UNL1       -0.0470
      8  C          6.3780    0.1070   -0.4800 C.2     1  UNL1        0.0040
      9  C          5.3570    0.6110    1.5840 C.2     1  UNL1        0.0040
     10  C          5.9340    1.3010   -1.0020 C.2     1  UNL1        0.0000
     11  C          4.9130    1.8060    1.0590 C.2     1  UNL1        0.0000
     12  C          5.1900    2.1760   -0.2370 C.2     1  UNL1        0.0000
@<TRIPOS>BOND
     1     5     4    1
     2    10     8    1
     3    10    12    2
     4     4     2    1
     5     8     7    2
     6    12    11    1
     7     2     3    2
     8     2     1    1
     9     7     6    1
    10     7     9    1
    11    11     9    2
    12     1     6    1
