@<TRIPOS>MOLECULE
/home/cewinharhar/GITHUB/reincatalyze/data/processed/docking_pred/2023-Apr-25-2248_maxeplen10_maxtrainstep1000_exh16_gamma099_lrac3e-4_lrcr1e-3/73f03501d88ed0f960f592fe5f6124e73644cb01_ligand_2.pdbqt
 12 12 0 0 0
SMALL
GASTEIGER

@<TRIPOS>ATOM
      1  C          5.0510    1.7930    0.7450 C.3     1  UNL1        0.1270
      2  C          4.4910    1.1200    1.9310 C.2     1  UNL1        0.3030
      3  O          5.1560    0.2040    2.4860 O.2     1  UNL1       -0.2520
      4  O          3.2410    1.4650    2.4660 O.3     1  UNL1       -0.4810
      5  H          2.7410    0.7750    3.0100 H       1  UNL1        0.2960
      6  C          6.5660    1.8690    0.7910 C.3     1  UNL1        0.0470
      7  C          7.1720    1.0910   -0.3220 C.2     1  UNL1       -0.0470
      8  C          6.4110    0.1900   -1.0520 C.2     1  UNL1        0.0040
      9  C          8.5020    1.2110   -0.6800 C.2     1  UNL1        0.0040
     10  C          6.9450   -0.5520   -2.0800 C.2     1  UNL1        0.0000
     11  C          9.0360    0.4670   -1.7110 C.2     1  UNL1        0.0000
     12  C          8.2740   -0.4270   -2.4300 C.2     1  UNL1        0.0000
@<TRIPOS>BOND
     1    12    10    2
     2    12    11    1
     3    10     8    1
     4    11     9    2
     5     8     7    2
     6     9     7    1
     7     7     6    1
     8     1     6    1
     9     1     2    1
    10     2     4    1
    11     2     3    2
    12     4     5    1
