@<TRIPOS>MOLECULE
/home/cewinharhar/GITHUB/reincatalyze/data/processed/docking_pred/2023-Apr-25-2248_maxeplen10_maxtrainstep1000_exh16_gamma099_lrac3e-4_lrcr1e-3/73f03501d88ed0f960f592fe5f6124e73644cb01_ligand_2.pdbqt
 12 12 0 0 0
SMALL
GASTEIGER

@<TRIPOS>ATOM
      1  C          8.3940   -0.5900   -2.1960 C.3     1  UNL1        0.1270
      2  C          8.4110   -1.8820   -2.9050 C.2     1  UNL1        0.3030
      3  O          7.3150   -2.4150   -3.2310 O.2     1  UNL1       -0.2520
      4  O          9.6050   -2.5400   -3.2320 O.3     1  UNL1       -0.4810
      5  H          9.5600   -3.5080   -3.5190 H       1  UNL1        0.2960
      6  C          7.0050    0.0210   -2.1470 C.3     1  UNL1        0.0470
      7  C          6.4880    0.0580   -0.7540 C.2     1  UNL1       -0.0470
      8  C          5.8530    1.1900   -0.2650 C.2     1  UNL1        0.0040
      9  C          6.6140   -1.0060    0.1200 C.2     1  UNL1        0.0040
     10  C          5.3720    1.2600    1.0220 C.2     1  UNL1        0.0000
     11  C          6.1320   -0.9350    1.4090 C.2     1  UNL1        0.0000
     12  C          5.5050    0.1920    1.8870 C.2     1  UNL1        0.0000
@<TRIPOS>BOND
     1     5     4    1
     2     4     2    1
     3     3     2    2
     4     2     1    1
     5     1     6    1
     6     6     7    1
     7     7     8    2
     8     7     9    1
     9     8    10    1
    10     9    11    2
    11    10    12    2
    12    11    12    1
