MODEL 1
REMARK VINA RESULT:      -7.3      0.000      0.000
REMARK SMILES O=C(O)CCc1ccccc1
REMARK SMILES IDX 4 1 2 2 1 3 3 4 5 6 6 7 7 8 11 9 8 10 10 11 9 12
REMARK H PARENT 3 5
REMARK Flexibility Score: inf
ROOT
ATOM      1  C   UNL     1       8.402  -0.597  -2.218  1.00  0.00     0.127 C 
ENDROOT
BRANCH   1   2
ATOM      2  C   UNL     1       8.441  -1.895  -2.914  1.00  0.00     0.303 C 
ATOM      3  O   UNL     1       9.548  -2.485  -3.048  1.00  0.00    -0.252 OA
BRANCH   2   4
ATOM      4  O   UNL     1       7.288  -2.501  -3.433  1.00  0.00    -0.481 OA
ATOM      5  H   UNL     1       6.456  -2.527  -2.859  1.00  0.00     0.296 HD
ENDBRANCH   2   4
ENDBRANCH   1   2
BRANCH   1   6
ATOM      6  C   UNL     1       7.003  -0.006  -2.185  1.00  0.00     0.047 C 
BRANCH   6   7
ATOM      7  C   UNL     1       6.484   0.054  -0.794  1.00  0.00    -0.047 A 
ATOM      8  C   UNL     1       5.839   1.190  -0.328  1.00  0.00     0.004 A 
ATOM      9  C   UNL     1       6.618  -0.992   0.101  1.00  0.00     0.004 A 
ATOM     10  C   UNL     1       5.356   1.281   0.958  1.00  0.00     0.000 A 
ATOM     11  C   UNL     1       6.134  -0.899   1.388  1.00  0.00     0.000 A 
ATOM     12  C   UNL     1       5.496   0.232   1.844  1.00  0.00     0.000 A 
ENDBRANCH   6   7
ENDBRANCH   1   6
TORSDOF 4
ENDMDL
MODEL 2
REMARK VINA RESULT:      -7.2      0.137      1.725
REMARK SMILES O=C(O)CCc1ccccc1
REMARK SMILES IDX 4 1 2 2 1 3 3 4 5 6 6 7 7 8 11 9 8 10 10 11 9 12
REMARK H PARENT 3 5
REMARK Flexibility Score: inf
ROOT
ATOM      1  C   UNL     1       8.404  -0.683  -2.083  1.00  0.00     0.127 C 
ENDROOT
BRANCH   1   2
ATOM      2  C   UNL     1       8.405  -1.923  -2.879  1.00  0.00     0.303 C 
ATOM      3  O   UNL     1       7.303  -2.422  -3.236  1.00  0.00    -0.252 OA
BRANCH   2   4
ATOM      4  O   UNL     1       9.591  -2.570  -3.256  1.00  0.00    -0.481 OA
ATOM      5  H   UNL     1      10.453  -2.042  -3.247  1.00  0.00     0.296 HD
ENDBRANCH   2   4
ENDBRANCH   1   2
BRANCH   1   6
ATOM      6  C   UNL     1       7.061   0.023  -2.122  1.00  0.00     0.047 C 
BRANCH   6   7
ATOM      7  C   UNL     1       6.483   0.143  -0.758  1.00  0.00    -0.047 A 
ATOM      8  C   UNL     1       6.598  -0.896   0.154  1.00  0.00     0.004 A 
ATOM      9  C   UNL     1       5.803   1.269  -0.330  1.00  0.00     0.004 A 
ATOM     10  C   UNL     1       6.066  -0.820   1.420  1.00  0.00     0.000 A 
ATOM     11  C   UNL     1       5.269   1.344   0.939  1.00  0.00     0.000 A 
ATOM     12  C   UNL     1       5.387   0.308   1.838  1.00  0.00     0.000 A 
ENDBRANCH   6   7
ENDBRANCH   1   6
TORSDOF 4
ENDMDL
MODEL 3
REMARK VINA RESULT:      -6.8      3.400      5.083
REMARK SMILES O=C(O)CCc1ccccc1
REMARK SMILES IDX 4 1 2 2 1 3 3 4 5 6 6 7 7 8 11 9 8 10 10 11 9 12
REMARK H PARENT 3 5
REMARK Flexibility Score: inf
ROOT
ATOM      1  C   UNL     1       5.022   1.763   0.727  1.00  0.00     0.127 C 
ENDROOT
BRANCH   1   2
ATOM      2  C   UNL     1       4.479   1.103   1.928  1.00  0.00     0.303 C 
ATOM      3  O   UNL     1       5.152   0.193   2.484  1.00  0.00    -0.252 OA
BRANCH   2   4
ATOM      4  O   UNL     1       3.236   1.452   2.476  1.00  0.00    -0.481 OA
ATOM      5  H   UNL     1       3.211   1.837   3.411  1.00  0.00     0.296 HD
ENDBRANCH   2   4
ENDBRANCH   1   2
BRANCH   1   6
ATOM      6  C   UNL     1       6.535   1.876   0.770  1.00  0.00     0.047 C 
BRANCH   6   7
ATOM      7  C   UNL     1       7.159   1.087  -0.325  1.00  0.00    -0.047 A 
ATOM      8  C   UNL     1       6.413   0.169  -1.049  1.00  0.00     0.004 A 
ATOM      9  C   UNL     1       8.492   1.212  -0.671  1.00  0.00     0.004 A 
ATOM     10  C   UNL     1       6.964  -0.584  -2.061  1.00  0.00     0.000 A 
ATOM     11  C   UNL     1       9.042   0.458  -1.685  1.00  0.00     0.000 A 
ATOM     12  C   UNL     1       8.296  -0.453  -2.398  1.00  0.00     0.000 A 
ENDBRANCH   6   7
ENDBRANCH   1   6
TORSDOF 4
ENDMDL
MODEL 4
REMARK VINA RESULT:      -6.7      3.835      4.949
REMARK SMILES O=C(O)CCc1ccccc1
REMARK SMILES IDX 4 1 2 2 1 3 3 4 5 6 6 7 7 8 11 9 8 10 10 11 9 12
REMARK H PARENT 3 5
REMARK Flexibility Score: inf
ROOT
ATOM      1  C   UNL     1       5.529   2.877   0.064  1.00  0.00     0.127 C 
ENDROOT
BRANCH   1   2
ATOM      2  C   UNL     1       6.259   3.891   0.846  1.00  0.00     0.303 C 
ATOM      3  O   UNL     1       6.921   4.774   0.237  1.00  0.00    -0.252 OA
BRANCH   2   4
ATOM      4  O   UNL     1       6.241   3.909   2.248  1.00  0.00    -0.481 OA
ATOM      5  H   UNL     1       6.620   4.715   2.726  1.00  0.00     0.296 HD
ENDBRANCH   2   4
ENDBRANCH   1   2
BRANCH   1   6
ATOM      6  C   UNL     1       4.898   1.816   0.947  1.00  0.00     0.047 C 
BRANCH   6   7
ATOM      7  C   UNL     1       5.735   0.589   0.986  1.00  0.00    -0.047 A 
ATOM      8  C   UNL     1       6.524   0.235  -0.099  1.00  0.00     0.004 A 
ATOM      9  C   UNL     1       5.769  -0.259   2.078  1.00  0.00     0.004 A 
ATOM     10  C   UNL     1       7.301  -0.900  -0.098  1.00  0.00     0.000 A 
ATOM     11  C   UNL     1       6.548  -1.396   2.078  1.00  0.00     0.000 A 
ATOM     12  C   UNL     1       7.327  -1.741   0.997  1.00  0.00     0.000 A 
ENDBRANCH   6   7
ENDBRANCH   1   6
TORSDOF 4
ENDMDL
MODEL 5
REMARK VINA RESULT:      -6.6      1.991      2.684
REMARK SMILES O=C(O)CCc1ccccc1
REMARK SMILES IDX 4 1 2 2 1 3 3 4 5 6 6 7 7 8 11 9 8 10 10 11 9 12
REMARK H PARENT 3 5
REMARK Flexibility Score: inf
ROOT
ATOM      1  C   UNL     1       8.286   0.342  -1.974  1.00  0.00     0.127 C 
ENDROOT
BRANCH   1   2
ATOM      2  C   UNL     1       9.465   0.402  -1.092  1.00  0.00     0.303 C 
ATOM      3  O   UNL     1       9.528  -0.376  -0.101  1.00  0.00    -0.252 OA
BRANCH   2   4
ATOM      4  O   UNL     1      10.523   1.294  -1.317  1.00  0.00    -0.481 OA
ATOM      5  H   UNL     1      11.457   0.921  -1.415  1.00  0.00     0.296 HD
ENDBRANCH   2   4
ENDBRANCH   1   2
BRANCH   1   6
ATOM      6  C   UNL     1       7.207  -0.578  -1.429  1.00  0.00     0.047 C 
BRANCH   6   7
ATOM      7  C   UNL     1       6.394   0.110  -0.393  1.00  0.00    -0.047 A 
ATOM      8  C   UNL     1       6.161  -0.488   0.837  1.00  0.00     0.004 A 
ATOM      9  C   UNL     1       5.824   1.355  -0.593  1.00  0.00     0.004 A 
ATOM     10  C   UNL     1       5.404   0.118   1.813  1.00  0.00     0.000 A 
ATOM     11  C   UNL     1       5.066   1.960   0.386  1.00  0.00     0.000 A 
ATOM     12  C   UNL     1       4.839   1.359   1.603  1.00  0.00     0.000 A 
ENDBRANCH   6   7
ENDBRANCH   1   6
TORSDOF 4
ENDMDL
