@<TRIPOS>MOLECULE
/home/cewinharhar/GITHUB/reincatalyze/data/processed/docking_pred/2023-Apr-25-2248_maxeplen10_maxtrainstep1000_exh16_gamma099_lrac3e-4_lrcr1e-3/7473f82790d6809f011fa27bf7bcba9a4b9bdb46_ligand_2.pdbqt
 12 12 0 0 0
SMALL
GASTEIGER

@<TRIPOS>ATOM
      1  C          8.4020   -0.5970   -2.2180 C.3     1  UNL1        0.1270
      2  C          8.4410   -1.8950   -2.9140 C.2     1  UNL1        0.3030
      3  O          9.5480   -2.4850   -3.0480 O.2     1  UNL1       -0.2520
      4  O          7.2880   -2.5010   -3.4330 O.3     1  UNL1       -0.4810
      5  H          6.4560   -2.5270   -2.8590 H       1  UNL1        0.2960
      6  C          7.0030   -0.0060   -2.1850 C.3     1  UNL1        0.0470
      7  C          6.4840    0.0540   -0.7940 C.2     1  UNL1       -0.0470
      8  C          5.8390    1.1900   -0.3280 C.2     1  UNL1        0.0040
      9  C          6.6180   -0.9920    0.1010 C.2     1  UNL1        0.0040
     10  C          5.3560    1.2810    0.9580 C.2     1  UNL1        0.0000
     11  C          6.1340   -0.8990    1.3880 C.2     1  UNL1        0.0000
     12  C          5.4960    0.2320    1.8440 C.2     1  UNL1        0.0000
@<TRIPOS>BOND
     1     4     2    1
     2     4     5    1
     3     3     2    2
     4     2     1    1
     5     1     6    1
     6     6     7    1
     7     7     8    2
     8     7     9    1
     9     8    10    1
    10     9    11    2
    11    10    12    2
    12    11    12    1
