@<TRIPOS>MOLECULE
/home/cewinharhar/GITHUB/reincatalyze/data/processed/docking_pred/2023-Apr-25-2248_maxeplen10_maxtrainstep1000_exh16_gamma099_lrac3e-4_lrcr1e-3/7473f82790d6809f011fa27bf7bcba9a4b9bdb46_ligand_2.pdbqt
 12 12 0 0 0
SMALL
GASTEIGER

@<TRIPOS>ATOM
      1  C          5.0220    1.7630    0.7270 C.3     1  UNL1        0.1270
      2  C          4.4790    1.1030    1.9280 C.2     1  UNL1        0.3030
      3  O          5.1520    0.1930    2.4840 O.2     1  UNL1       -0.2520
      4  O          3.2360    1.4520    2.4760 O.3     1  UNL1       -0.4810
      5  H          3.2110    1.8370    3.4110 H       1  UNL1        0.2960
      6  C          6.5350    1.8760    0.7700 C.3     1  UNL1        0.0470
      7  C          7.1590    1.0870   -0.3250 C.2     1  UNL1       -0.0470
      8  C          6.4130    0.1690   -1.0490 C.2     1  UNL1        0.0040
      9  C          8.4920    1.2120   -0.6710 C.2     1  UNL1        0.0040
     10  C          6.9640   -0.5840   -2.0610 C.2     1  UNL1        0.0000
     11  C          9.0420    0.4580   -1.6850 C.2     1  UNL1        0.0000
     12  C          8.2960   -0.4530   -2.3980 C.2     1  UNL1        0.0000
@<TRIPOS>BOND
     1    12    10    2
     2    12    11    1
     3    10     8    1
     4    11     9    2
     5     8     7    2
     6     9     7    1
     7     7     6    1
     8     1     6    1
     9     1     2    1
    10     2     4    1
    11     2     3    2
    12     4     5    1
