@<TRIPOS>MOLECULE
/home/cewinharhar/GITHUB/reincatalyze/data/processed/docking_pred/2023-Apr-25-2248_maxeplen10_maxtrainstep1000_exh16_gamma099_lrac3e-4_lrcr1e-3/7473f82790d6809f011fa27bf7bcba9a4b9bdb46_ligand_2.pdbqt
 12 12 0 0 0
SMALL
GASTEIGER

@<TRIPOS>ATOM
      1  C          8.2860    0.3420   -1.9740 C.3     1  UNL1        0.1270
      2  C          9.4650    0.4020   -1.0920 C.2     1  UNL1        0.3030
      3  O          9.5280   -0.3760   -0.1010 O.2     1  UNL1       -0.2520
      4  O         10.5230    1.2940   -1.3170 O.3     1  UNL1       -0.4810
      5  H         11.4570    0.9210   -1.4150 H       1  UNL1        0.2960
      6  C          7.2070   -0.5780   -1.4290 C.3     1  UNL1        0.0470
      7  C          6.3940    0.1100   -0.3930 C.2     1  UNL1       -0.0470
      8  C          6.1610   -0.4880    0.8370 C.2     1  UNL1        0.0040
      9  C          5.8240    1.3550   -0.5930 C.2     1  UNL1        0.0040
     10  C          5.4040    0.1180    1.8130 C.2     1  UNL1        0.0000
     11  C          5.0660    1.9600    0.3860 C.2     1  UNL1        0.0000
     12  C          4.8390    1.3590    1.6030 C.2     1  UNL1        0.0000
@<TRIPOS>BOND
     1     1     6    1
     2     1     2    1
     3     6     7    1
     4     5     4    1
     5     4     2    1
     6     2     3    2
     7     9     7    2
     8     9    11    1
     9     7     8    1
    10    11    12    2
    11     8    10    2
    12    12    10    1
