@<TRIPOS>MOLECULE
/home/cewinharhar/GITHUB/reincatalyze/data/processed/docking_pred/2023-Apr-25-2248_maxeplen10_maxtrainstep1000_exh16_gamma099_lrac3e-4_lrcr1e-3/7473f82790d6809f011fa27bf7bcba9a4b9bdb46_ligand_2.pdbqt
 12 12 0 0 0
SMALL
GASTEIGER

@<TRIPOS>ATOM
      1  C          5.5290    2.8770    0.0640 C.3     1  UNL1        0.1270
      2  C          6.2590    3.8910    0.8460 C.2     1  UNL1        0.3030
      3  O          6.9210    4.7740    0.2370 O.2     1  UNL1       -0.2520
      4  O          6.2410    3.9090    2.2480 O.3     1  UNL1       -0.4810
      5  H          6.6200    4.7150    2.7260 H       1  UNL1        0.2960
      6  C          4.8980    1.8160    0.9470 C.3     1  UNL1        0.0470
      7  C          5.7350    0.5890    0.9860 C.2     1  UNL1       -0.0470
      8  C          6.5240    0.2350   -0.0990 C.2     1  UNL1        0.0040
      9  C          5.7690   -0.2590    2.0780 C.2     1  UNL1        0.0040
     10  C          7.3010   -0.9000   -0.0980 C.2     1  UNL1        0.0000
     11  C          6.5480   -1.3960    2.0780 C.2     1  UNL1        0.0000
     12  C          7.3270   -1.7410    0.9970 C.2     1  UNL1        0.0000
@<TRIPOS>BOND
     1     8    10    1
     2     8     7    2
     3    10    12    2
     4     1     2    1
     5     1     6    1
     6     3     2    2
     7     2     4    1
     8     6     7    1
     9     7     9    1
    10    12    11    1
    11     9    11    2
    12     4     5    1
