@<TRIPOS>MOLECULE
/home/cewinharhar/GITHUB/reincatalyze/data/processed/docking_pred/2023-Apr-25-2248_maxeplen10_maxtrainstep1000_exh16_gamma099_lrac3e-4_lrcr1e-3/7473f82790d6809f011fa27bf7bcba9a4b9bdb46_ligand_2.pdbqt
 12 12 0 0 0
SMALL
GASTEIGER

@<TRIPOS>ATOM
      1  C          8.4040   -0.6830   -2.0830 C.3     1  UNL1        0.1270
      2  C          8.4050   -1.9230   -2.8790 C.2     1  UNL1        0.3030
      3  O          7.3030   -2.4220   -3.2360 O.2     1  UNL1       -0.2520
      4  O          9.5910   -2.5700   -3.2560 O.3     1  UNL1       -0.4810
      5  H         10.4530   -2.0420   -3.2470 H       1  UNL1        0.2960
      6  C          7.0610    0.0230   -2.1220 C.3     1  UNL1        0.0470
      7  C          6.4830    0.1430   -0.7580 C.2     1  UNL1       -0.0470
      8  C          6.5980   -0.8960    0.1540 C.2     1  UNL1        0.0040
      9  C          5.8030    1.2690   -0.3300 C.2     1  UNL1        0.0040
     10  C          6.0660   -0.8200    1.4200 C.2     1  UNL1        0.0000
     11  C          5.2690    1.3440    0.9390 C.2     1  UNL1        0.0000
     12  C          5.3870    0.3080    1.8380 C.2     1  UNL1        0.0000
@<TRIPOS>BOND
     1     4     5    1
     2     4     2    1
     3     3     2    2
     4     2     1    1
     5     6     1    1
     6     6     7    1
     7     7     9    2
     8     7     8    1
     9     9    11    1
    10     8    10    2
    11    11    12    2
    12    10    12    1
