@<TRIPOS>MOLECULE
/home/cewinharhar/GITHUB/reincatalyze/data/processed/docking_pred/2023-Apr-25-2248_maxeplen10_maxtrainstep1000_exh16_gamma099_lrac3e-4_lrcr1e-3/76d14433275938f70f74ce69856b36729c59e426_ligand_2.pdbqt
 12 12 0 0 0
SMALL
GASTEIGER

@<TRIPOS>ATOM
      1  C          8.4100   -0.6240   -2.1780 C.3     1  UNL1        0.1270
      2  C          8.4410   -1.9030   -2.9100 C.2     1  UNL1        0.3030
      3  O          9.5460   -2.4880   -3.0730 O.2     1  UNL1       -0.2520
      4  O          7.2820   -2.4940   -3.4320 O.3     1  UNL1       -0.4810
      5  H          7.3520   -3.0120   -4.2980 H       1  UNL1        0.2960
      6  C          7.0240   -0.0060   -2.1610 C.3     1  UNL1        0.0470
      7  C          6.4860    0.0600   -0.7770 C.2     1  UNL1       -0.0470
      8  C          5.8300    1.1960   -0.3260 C.2     1  UNL1        0.0040
      9  C          6.6140   -0.9800    0.1250 C.2     1  UNL1        0.0040
     10  C          5.3300    1.2920    0.9530 C.2     1  UNL1        0.0000
     11  C          6.1130   -0.8830    1.4050 C.2     1  UNL1        0.0000
     12  C          5.4640    0.2480    1.8460 C.2     1  UNL1        0.0000
@<TRIPOS>BOND
     1     5     4    1
     2     4     2    1
     3     3     2    2
     4     2     1    1
     5     1     6    1
     6     6     7    1
     7     7     8    2
     8     7     9    1
     9     8    10    1
    10     9    11    2
    11    10    12    2
    12    11    12    1
