@<TRIPOS>MOLECULE
/home/cewinharhar/GITHUB/reincatalyze/data/processed/docking_pred/2023-Apr-25-2248_maxeplen10_maxtrainstep1000_exh16_gamma099_lrac3e-4_lrcr1e-3/76d14433275938f70f74ce69856b36729c59e426_ligand_2.pdbqt
 12 12 0 0 0
SMALL
GASTEIGER

@<TRIPOS>ATOM
      1  C          5.3680    2.9530    0.1510 C.3     1  UNL1        0.1270
      2  C          6.2180    3.9070    0.8850 C.2     1  UNL1        0.3030
      3  O          6.8650    4.7750    0.2370 O.2     1  UNL1       -0.2520
      4  O          6.3340    3.8860    2.2820 O.3     1  UNL1       -0.4810
      5  H          7.2560    3.8160    2.6900 H       1  UNL1        0.2960
      6  C          5.2350    1.6270    0.8780 C.3     1  UNL1        0.0470
      7  C          6.0070    0.5610    0.1880 C.2     1  UNL1       -0.0470
      8  C          6.2810    0.6510   -1.1690 C.2     1  UNL1        0.0040
      9  C          6.4800   -0.5630    0.8410 C.2     1  UNL1        0.0040
     10  C          6.9840   -0.3230   -1.8390 C.2     1  UNL1        0.0000
     11  C          7.1840   -1.5380    0.1690 C.2     1  UNL1        0.0000
     12  C          7.4510   -1.4420   -1.1780 C.2     1  UNL1        0.0000
@<TRIPOS>BOND
     1    10    12    2
     2    10     8    1
     3    12    11    1
     4     8     7    2
     5     1     6    1
     6     1     2    1
     7    11     9    2
     8     7     9    1
     9     7     6    1
    10     3     2    2
    11     2     4    1
    12     4     5    1
