MODEL 1
REMARK VINA RESULT:      -7.3      0.000      0.000
REMARK SMILES O=C(O)CCc1ccccc1
REMARK SMILES IDX 4 1 2 2 1 3 3 4 5 6 6 7 7 8 11 9 8 10 10 11 9 12
REMARK H PARENT 3 5
REMARK Flexibility Score: inf
ROOT
ATOM      1  C   UNL     1       8.410  -0.624  -2.178  1.00  0.00     0.127 C 
ENDROOT
BRANCH   1   2
ATOM      2  C   UNL     1       8.441  -1.903  -2.910  1.00  0.00     0.303 C 
ATOM      3  O   UNL     1       9.546  -2.488  -3.073  1.00  0.00    -0.252 OA
BRANCH   2   4
ATOM      4  O   UNL     1       7.282  -2.494  -3.432  1.00  0.00    -0.481 OA
ATOM      5  H   UNL     1       7.352  -3.012  -4.298  1.00  0.00     0.296 HD
ENDBRANCH   2   4
ENDBRANCH   1   2
BRANCH   1   6
ATOM      6  C   UNL     1       7.024  -0.006  -2.161  1.00  0.00     0.047 C 
BRANCH   6   7
ATOM      7  C   UNL     1       6.486   0.060  -0.777  1.00  0.00    -0.047 A 
ATOM      8  C   UNL     1       5.830   1.196  -0.326  1.00  0.00     0.004 A 
ATOM      9  C   UNL     1       6.614  -0.980   0.125  1.00  0.00     0.004 A 
ATOM     10  C   UNL     1       5.330   1.292   0.953  1.00  0.00     0.000 A 
ATOM     11  C   UNL     1       6.113  -0.883   1.405  1.00  0.00     0.000 A 
ATOM     12  C   UNL     1       5.464   0.248   1.846  1.00  0.00     0.000 A 
ENDBRANCH   6   7
ENDBRANCH   1   6
TORSDOF 4
ENDMDL
MODEL 2
REMARK VINA RESULT:      -7.3      0.039      1.421
REMARK SMILES O=C(O)CCc1ccccc1
REMARK SMILES IDX 4 1 2 2 1 3 3 4 5 6 6 7 7 8 11 9 8 10 10 11 9 12
REMARK H PARENT 3 5
REMARK Flexibility Score: inf
ROOT
ATOM      1  C   UNL     1       8.411  -0.600  -2.184  1.00  0.00     0.127 C 
ENDROOT
BRANCH   1   2
ATOM      2  C   UNL     1       8.463  -1.883  -2.907  1.00  0.00     0.303 C 
ATOM      3  O   UNL     1       9.577  -2.449  -3.071  1.00  0.00    -0.252 OA
BRANCH   2   4
ATOM      4  O   UNL     1       7.312  -2.500  -3.419  1.00  0.00    -0.481 OA
ATOM      5  H   UNL     1       7.154  -2.475  -4.417  1.00  0.00     0.296 HD
ENDBRANCH   2   4
ENDBRANCH   1   2
BRANCH   1   6
ATOM      6  C   UNL     1       7.016  -0.001  -2.178  1.00  0.00     0.047 C 
BRANCH   6   7
ATOM      7  C   UNL     1       6.490   0.109  -0.792  1.00  0.00    -0.047 A 
ATOM      8  C   UNL     1       6.605  -0.953   0.095  1.00  0.00     0.004 A 
ATOM      9  C   UNL     1       5.860   1.245  -0.318  1.00  0.00     0.004 A 
ATOM     10  C   UNL     1       6.119  -0.886   1.380  1.00  0.00     0.000 A 
ATOM     11  C   UNL     1       5.373   1.309   0.970  1.00  0.00     0.000 A 
ATOM     12  C   UNL     1       5.490   0.252   1.843  1.00  0.00     0.000 A 
ENDBRANCH   6   7
ENDBRANCH   1   6
TORSDOF 4
ENDMDL
MODEL 3
REMARK VINA RESULT:      -6.8      3.398      5.092
REMARK SMILES O=C(O)CCc1ccccc1
REMARK SMILES IDX 4 1 2 2 1 3 3 4 5 6 6 7 7 8 11 9 8 10 10 11 9 12
REMARK H PARENT 3 5
REMARK Flexibility Score: inf
ROOT
ATOM      1  C   UNL     1       5.045   1.789   0.752  1.00  0.00     0.127 C 
ENDROOT
BRANCH   1   2
ATOM      2  C   UNL     1       4.474   1.112   1.930  1.00  0.00     0.303 C 
ATOM      3  O   UNL     1       5.125   0.180   2.476  1.00  0.00    -0.252 OA
BRANCH   2   4
ATOM      4  O   UNL     1       3.229   1.470   2.468  1.00  0.00    -0.481 OA
ATOM      5  H   UNL     1       2.996   2.452   2.535  1.00  0.00     0.296 HD
ENDBRANCH   2   4
ENDBRANCH   1   2
BRANCH   1   6
ATOM      6  C   UNL     1       6.561   1.851   0.804  1.00  0.00     0.047 C 
BRANCH   6   7
ATOM      7  C   UNL     1       7.165   1.075  -0.310  1.00  0.00    -0.047 A 
ATOM      8  C   UNL     1       6.411   0.151  -1.019  1.00  0.00     0.004 A 
ATOM      9  C   UNL     1       8.486   1.219  -0.692  1.00  0.00     0.004 A 
ATOM     10  C   UNL     1       6.944  -0.591  -2.048  1.00  0.00     0.000 A 
ATOM     11  C   UNL     1       9.018   0.475  -1.723  1.00  0.00     0.000 A 
ATOM     12  C   UNL     1       8.264  -0.441  -2.421  1.00  0.00     0.000 A 
ENDBRANCH   6   7
ENDBRANCH   1   6
TORSDOF 4
ENDMDL
MODEL 4
REMARK VINA RESULT:      -6.5      3.779      5.012
REMARK SMILES O=C(O)CCc1ccccc1
REMARK SMILES IDX 4 1 2 2 1 3 3 4 5 6 6 7 7 8 11 9 8 10 10 11 9 12
REMARK H PARENT 3 5
REMARK Flexibility Score: inf
ROOT
ATOM      1  C   UNL     1       5.368   2.953   0.151  1.00  0.00     0.127 C 
ENDROOT
BRANCH   1   2
ATOM      2  C   UNL     1       6.218   3.907   0.885  1.00  0.00     0.303 C 
ATOM      3  O   UNL     1       6.865   4.775   0.237  1.00  0.00    -0.252 OA
BRANCH   2   4
ATOM      4  O   UNL     1       6.334   3.886   2.282  1.00  0.00    -0.481 OA
ATOM      5  H   UNL     1       7.256   3.816   2.690  1.00  0.00     0.296 HD
ENDBRANCH   2   4
ENDBRANCH   1   2
BRANCH   1   6
ATOM      6  C   UNL     1       5.235   1.627   0.878  1.00  0.00     0.047 C 
BRANCH   6   7
ATOM      7  C   UNL     1       6.007   0.561   0.188  1.00  0.00    -0.047 A 
ATOM      8  C   UNL     1       6.281   0.651  -1.169  1.00  0.00     0.004 A 
ATOM      9  C   UNL     1       6.480  -0.563   0.841  1.00  0.00     0.004 A 
ATOM     10  C   UNL     1       6.984  -0.323  -1.839  1.00  0.00     0.000 A 
ATOM     11  C   UNL     1       7.184  -1.538   0.169  1.00  0.00     0.000 A 
ATOM     12  C   UNL     1       7.451  -1.442  -1.178  1.00  0.00     0.000 A 
ENDBRANCH   6   7
ENDBRANCH   1   6
TORSDOF 4
ENDMDL
MODEL 5
REMARK VINA RESULT:      -6.5      1.965      2.925
REMARK SMILES O=C(O)CCc1ccccc1
REMARK SMILES IDX 4 1 2 2 1 3 3 4 5 6 6 7 7 8 11 9 8 10 10 11 9 12
REMARK H PARENT 3 5
REMARK Flexibility Score: inf
ROOT
ATOM      1  C   UNL     1       8.270  -1.697   1.188  1.00  0.00     0.127 C 
ENDROOT
BRANCH   1   2
ATOM      2  C   UNL     1       8.665  -2.931   0.485  1.00  0.00     0.303 C 
ATOM      3  O   UNL     1       9.413  -3.758   1.073  1.00  0.00    -0.252 OA
BRANCH   2   4
ATOM      4  O   UNL     1       8.237  -3.218  -0.819  1.00  0.00    -0.481 OA
ATOM      5  H   UNL     1       8.295  -2.490  -1.519  1.00  0.00     0.296 HD
ENDBRANCH   2   4
ENDBRANCH   1   2
BRANCH   1   6
ATOM      6  C   UNL     1       6.767  -1.603   1.381  1.00  0.00     0.047 C 
BRANCH   6   7
ATOM      7  C   UNL     1       6.237  -0.333   0.822  1.00  0.00    -0.047 A 
ATOM      8  C   UNL     1       5.467   0.517   1.604  1.00  0.00     0.004 A 
ATOM      9  C   UNL     1       6.465   0.064  -0.483  1.00  0.00     0.004 A 
ATOM     10  C   UNL     1       4.953   1.695   1.112  1.00  0.00     0.000 A 
ATOM     11  C   UNL     1       5.949   1.244  -0.973  1.00  0.00     0.000 A 
ATOM     12  C   UNL     1       5.185   2.082  -0.192  1.00  0.00     0.000 A 
ENDBRANCH   6   7
ENDBRANCH   1   6
TORSDOF 4
ENDMDL
