@<TRIPOS>MOLECULE
/home/cewinharhar/GITHUB/reincatalyze/data/processed/docking_pred/2023-Apr-25-2248_maxeplen10_maxtrainstep1000_exh16_gamma099_lrac3e-4_lrcr1e-3/76d14433275938f70f74ce69856b36729c59e426_ligand_2.pdbqt
 12 12 0 0 0
SMALL
GASTEIGER

@<TRIPOS>ATOM
      1  C          8.2700   -1.6970    1.1880 C.3     1  UNL1        0.1270
      2  C          8.6650   -2.9310    0.4850 C.2     1  UNL1        0.3030
      3  O          9.4130   -3.7580    1.0730 O.2     1  UNL1       -0.2520
      4  O          8.2370   -3.2180   -0.8190 O.3     1  UNL1       -0.4810
      5  H          8.2950   -2.4900   -1.5190 H       1  UNL1        0.2960
      6  C          6.7670   -1.6030    1.3810 C.3     1  UNL1        0.0470
      7  C          6.2370   -0.3330    0.8220 C.2     1  UNL1       -0.0470
      8  C          5.4670    0.5170    1.6040 C.2     1  UNL1        0.0040
      9  C          6.4650    0.0640   -0.4830 C.2     1  UNL1        0.0040
     10  C          4.9530    1.6950    1.1120 C.2     1  UNL1        0.0000
     11  C          5.9490    1.2440   -0.9730 C.2     1  UNL1        0.0000
     12  C          5.1850    2.0820   -0.1920 C.2     1  UNL1        0.0000
@<TRIPOS>BOND
     1     5     4    1
     2    11     9    1
     3    11    12    2
     4     4     2    1
     5     9     7    2
     6    12    10    1
     7     2     3    2
     8     2     1    1
     9     7     6    1
    10     7     8    1
    11    10     8    2
    12     1     6    1
