@<TRIPOS>MOLECULE
/home/cewinharhar/GITHUB/reincatalyze/data/processed/docking_pred/2023-Apr-25-2248_maxeplen10_maxtrainstep1000_exh16_gamma099_lrac3e-4_lrcr1e-3/76d14433275938f70f74ce69856b36729c59e426_ligand_2.pdbqt
 12 12 0 0 0
SMALL
GASTEIGER

@<TRIPOS>ATOM
      1  C          5.0450    1.7890    0.7520 C.3     1  UNL1        0.1270
      2  C          4.4740    1.1120    1.9300 C.2     1  UNL1        0.3030
      3  O          5.1250    0.1800    2.4760 O.2     1  UNL1       -0.2520
      4  O          3.2290    1.4700    2.4680 O.3     1  UNL1       -0.4810
      5  H          2.9960    2.4520    2.5350 H       1  UNL1        0.2960
      6  C          6.5610    1.8510    0.8040 C.3     1  UNL1        0.0470
      7  C          7.1650    1.0750   -0.3100 C.2     1  UNL1       -0.0470
      8  C          6.4110    0.1510   -1.0190 C.2     1  UNL1        0.0040
      9  C          8.4860    1.2190   -0.6920 C.2     1  UNL1        0.0040
     10  C          6.9440   -0.5910   -2.0480 C.2     1  UNL1        0.0000
     11  C          9.0180    0.4750   -1.7230 C.2     1  UNL1        0.0000
     12  C          8.2640   -0.4410   -2.4210 C.2     1  UNL1        0.0000
@<TRIPOS>BOND
     1    12    10    2
     2    12    11    1
     3    10     8    1
     4    11     9    2
     5     8     7    2
     6     9     7    1
     7     7     6    1
     8     1     6    1
     9     1     2    1
    10     2     4    1
    11     2     3    2
    12     4     5    1
