@<TRIPOS>MOLECULE
/home/cewinharhar/GITHUB/reincatalyze/data/processed/docking_pred/2023-Apr-25-2248_maxeplen10_maxtrainstep1000_exh16_gamma099_lrac3e-4_lrcr1e-3/76d14433275938f70f74ce69856b36729c59e426_ligand_2.pdbqt
 12 12 0 0 0
SMALL
GASTEIGER

@<TRIPOS>ATOM
      1  C          8.4110   -0.6000   -2.1840 C.3     1  UNL1        0.1270
      2  C          8.4630   -1.8830   -2.9070 C.2     1  UNL1        0.3030
      3  O          9.5770   -2.4490   -3.0710 O.2     1  UNL1       -0.2520
      4  O          7.3120   -2.5000   -3.4190 O.3     1  UNL1       -0.4810
      5  H          7.1540   -2.4750   -4.4170 H       1  UNL1        0.2960
      6  C          7.0160   -0.0010   -2.1780 C.3     1  UNL1        0.0470
      7  C          6.4900    0.1090   -0.7920 C.2     1  UNL1       -0.0470
      8  C          6.6050   -0.9530    0.0950 C.2     1  UNL1        0.0040
      9  C          5.8600    1.2450   -0.3180 C.2     1  UNL1        0.0040
     10  C          6.1190   -0.8860    1.3800 C.2     1  UNL1        0.0000
     11  C          5.3730    1.3090    0.9700 C.2     1  UNL1        0.0000
     12  C          5.4900    0.2520    1.8430 C.2     1  UNL1        0.0000
@<TRIPOS>BOND
     1     5     4    1
     2     4     2    1
     3     3     2    2
     4     2     1    1
     5     1     6    1
     6     6     7    1
     7     7     9    2
     8     7     8    1
     9     9    11    1
    10     8    10    2
    11    11    12    2
    12    10    12    1
