MODEL 1
REMARK VINA RESULT:      -7.3      0.000      0.000
REMARK SMILES O=C(O)CCc1ccccc1
REMARK SMILES IDX 4 1 2 2 1 3 3 4 5 6 6 7 7 8 11 9 8 10 10 11 9 12
REMARK H PARENT 3 5
REMARK Flexibility Score: inf
ROOT
ATOM      1  C   UNL     1       8.395  -0.656  -2.123  1.00  0.00     0.127 C 
ENDROOT
BRANCH   1   2
ATOM      2  C   UNL     1       8.426  -1.910  -2.897  1.00  0.00     0.303 C 
ATOM      3  O   UNL     1       9.530  -2.494  -3.074  1.00  0.00    -0.252 OA
BRANCH   2   4
ATOM      4  O   UNL     1       7.267  -2.480  -3.444  1.00  0.00    -0.481 OA
ATOM      5  H   UNL     1       6.715  -1.929  -4.088  1.00  0.00     0.296 HD
ENDBRANCH   2   4
ENDBRANCH   1   2
BRANCH   1   6
ATOM      6  C   UNL     1       7.017  -0.021  -2.114  1.00  0.00     0.047 C 
BRANCH   6   7
ATOM      7  C   UNL     1       6.480   0.067  -0.731  1.00  0.00    -0.047 A 
ATOM      8  C   UNL     1       6.608  -1.001   0.147  1.00  0.00     0.004 A 
ATOM      9  C   UNL     1       5.828   1.187  -0.251  1.00  0.00     0.004 A 
ATOM     10  C   UNL     1       6.112  -0.954   1.430  1.00  0.00     0.000 A 
ATOM     11  C   UNL     1       5.332   1.232   1.035  1.00  0.00     0.000 A 
ATOM     12  C   UNL     1       5.462   0.169   1.899  1.00  0.00     0.000 A 
ENDBRANCH   6   7
ENDBRANCH   1   6
TORSDOF 4
ENDMDL
MODEL 2
REMARK VINA RESULT:      -7.3      0.143      1.725
REMARK SMILES O=C(O)CCc1ccccc1
REMARK SMILES IDX 4 1 2 2 1 3 3 4 5 6 6 7 7 8 11 9 8 10 10 11 9 12
REMARK H PARENT 3 5
REMARK Flexibility Score: inf
ROOT
ATOM      1  C   UNL     1       8.407  -0.695  -2.075  1.00  0.00     0.127 C 
ENDROOT
BRANCH   1   2
ATOM      2  C   UNL     1       8.406  -1.932  -2.877  1.00  0.00     0.303 C 
ATOM      3  O   UNL     1       7.304  -2.426  -3.239  1.00  0.00    -0.252 OA
BRANCH   2   4
ATOM      4  O   UNL     1       9.591  -2.579  -3.255  1.00  0.00    -0.481 OA
ATOM      5  H   UNL     1      10.304  -2.043  -3.731  1.00  0.00     0.296 HD
ENDBRANCH   2   4
ENDBRANCH   1   2
BRANCH   1   6
ATOM      6  C   UNL     1       7.063   0.010  -2.106  1.00  0.00     0.047 C 
BRANCH   6   7
ATOM      7  C   UNL     1       6.478   0.100  -0.742  1.00  0.00    -0.047 A 
ATOM      8  C   UNL     1       5.801   1.242  -0.337  1.00  0.00     0.004 A 
ATOM      9  C   UNL     1       6.581  -0.920   0.185  1.00  0.00     0.004 A 
ATOM     10  C   UNL     1       5.258   1.360   0.922  1.00  0.00     0.000 A 
ATOM     11  C   UNL     1       6.036  -0.800   1.446  1.00  0.00     0.000 A 
ATOM     12  C   UNL     1       5.367   0.336   1.841  1.00  0.00     0.000 A 
ENDBRANCH   6   7
ENDBRANCH   1   6
TORSDOF 4
ENDMDL
MODEL 3
REMARK VINA RESULT:      -6.9      0.670      1.623
REMARK SMILES O=C(O)CCc1ccccc1
REMARK SMILES IDX 4 1 2 2 1 3 3 4 5 6 6 7 7 8 11 9 8 10 10 11 9 12
REMARK H PARENT 3 5
REMARK Flexibility Score: inf
ROOT
ATOM      1  C   UNL     1       7.933  -0.732  -2.167  1.00  0.00     0.127 C 
ENDROOT
BRANCH   1   2
ATOM      2  C   UNL     1       8.177  -1.921  -3.003  1.00  0.00     0.303 C 
ATOM      3  O   UNL     1       9.347  -2.387  -3.078  1.00  0.00    -0.252 OA
BRANCH   2   4
ATOM      4  O   UNL     1       7.151  -2.556  -3.718  1.00  0.00    -0.481 OA
ATOM      5  H   UNL     1       6.974  -3.536  -3.542  1.00  0.00     0.296 HD
ENDBRANCH   2   4
ENDBRANCH   1   2
BRANCH   1   6
ATOM      6  C   UNL     1       7.737  -1.089  -0.705  1.00  0.00     0.047 C 
BRANCH   6   7
ATOM      7  C   UNL     1       6.754  -0.178  -0.061  1.00  0.00    -0.047 A 
ATOM      8  C   UNL     1       6.317   0.966  -0.713  1.00  0.00     0.004 A 
ATOM      9  C   UNL     1       6.237  -0.407   1.201  1.00  0.00     0.004 A 
ATOM     10  C   UNL     1       5.416   1.834  -0.140  1.00  0.00     0.000 A 
ATOM     11  C   UNL     1       5.335   0.463   1.773  1.00  0.00     0.000 A 
ATOM     12  C   UNL     1       4.906   1.597   1.121  1.00  0.00     0.000 A 
ENDBRANCH   6   7
ENDBRANCH   1   6
TORSDOF 4
ENDMDL
MODEL 4
REMARK VINA RESULT:      -6.8      3.401      5.075
REMARK SMILES O=C(O)CCc1ccccc1
REMARK SMILES IDX 4 1 2 2 1 3 3 4 5 6 6 7 7 8 11 9 8 10 10 11 9 12
REMARK H PARENT 3 5
REMARK Flexibility Score: inf
ROOT
ATOM      1  C   UNL     1       5.000   1.779   0.735  1.00  0.00     0.127 C 
ENDROOT
BRANCH   1   2
ATOM      2  C   UNL     1       4.458   1.108   1.930  1.00  0.00     0.303 C 
ATOM      3  O   UNL     1       5.131   0.192   2.476  1.00  0.00    -0.252 OA
BRANCH   2   4
ATOM      4  O   UNL     1       3.218   1.455   2.485  1.00  0.00    -0.481 OA
ATOM      5  H   UNL     1       2.377   1.116   2.037  1.00  0.00     0.296 HD
ENDBRANCH   2   4
ENDBRANCH   1   2
BRANCH   1   6
ATOM      6  C   UNL     1       6.513   1.894   0.778  1.00  0.00     0.047 C 
BRANCH   6   7
ATOM      7  C   UNL     1       7.139   1.106  -0.316  1.00  0.00    -0.047 A 
ATOM      8  C   UNL     1       6.395   0.184  -1.038  1.00  0.00     0.004 A 
ATOM      9  C   UNL     1       8.471   1.236  -0.664  1.00  0.00     0.004 A 
ATOM     10  C   UNL     1       6.948  -0.568  -2.050  1.00  0.00     0.000 A 
ATOM     11  C   UNL     1       9.023   0.482  -1.677  1.00  0.00     0.000 A 
ATOM     12  C   UNL     1       8.279  -0.432  -2.389  1.00  0.00     0.000 A 
ENDBRANCH   6   7
ENDBRANCH   1   6
TORSDOF 4
ENDMDL
MODEL 5
REMARK VINA RESULT:      -6.7      3.818      4.920
REMARK SMILES O=C(O)CCc1ccccc1
REMARK SMILES IDX 4 1 2 2 1 3 3 4 5 6 6 7 7 8 11 9 8 10 10 11 9 12
REMARK H PARENT 3 5
REMARK Flexibility Score: inf
ROOT
ATOM      1  C   UNL     1       5.495   2.858   0.035  1.00  0.00     0.127 C 
ENDROOT
BRANCH   1   2
ATOM      2  C   UNL     1       6.248   3.863   0.806  1.00  0.00     0.303 C 
ATOM      3  O   UNL     1       6.873   4.767   0.188  1.00  0.00    -0.252 OA
BRANCH   2   4
ATOM      4  O   UNL     1       6.292   3.851   2.208  1.00  0.00    -0.481 OA
ATOM      5  H   UNL     1       6.419   4.728   2.695  1.00  0.00     0.296 HD
ENDBRANCH   2   4
ENDBRANCH   1   2
BRANCH   1   6
ATOM      6  C   UNL     1       4.892   1.786   0.924  1.00  0.00     0.047 C 
BRANCH   6   7
ATOM      7  C   UNL     1       5.742   0.567   0.939  1.00  0.00    -0.047 A 
ATOM      8  C   UNL     1       5.738  -0.285   2.035  1.00  0.00     0.004 A 
ATOM      9  C   UNL     1       6.575   0.222  -0.109  1.00  0.00     0.004 A 
ATOM     10  C   UNL     1       6.522  -1.416   2.083  1.00  0.00     0.000 A 
ATOM     11  C   UNL     1       7.359  -0.911  -0.059  1.00  0.00     0.000 A 
ATOM     12  C   UNL     1       7.351  -1.750   1.032  1.00  0.00     0.000 A 
ENDBRANCH   6   7
ENDBRANCH   1   6
TORSDOF 4
ENDMDL
