@<TRIPOS>MOLECULE
/home/cewinharhar/GITHUB/reincatalyze/data/processed/docking_pred/2023-Apr-25-2248_maxeplen10_maxtrainstep1000_exh16_gamma099_lrac3e-4_lrcr1e-3/777751631f294be45381376aa4be6161cfc72981_ligand_2.pdbqt
 12 12 0 0 0
SMALL
GASTEIGER

@<TRIPOS>ATOM
      1  C          5.0000    1.7790    0.7350 C.3     1  UNL1        0.1270
      2  C          4.4580    1.1080    1.9300 C.2     1  UNL1        0.3030
      3  O          5.1310    0.1920    2.4760 O.2     1  UNL1       -0.2520
      4  O          3.2180    1.4550    2.4850 O.3     1  UNL1       -0.4810
      5  H          2.3770    1.1160    2.0370 H       1  UNL1        0.2960
      6  C          6.5130    1.8940    0.7780 C.3     1  UNL1        0.0470
      7  C          7.1390    1.1060   -0.3160 C.2     1  UNL1       -0.0470
      8  C          6.3950    0.1840   -1.0380 C.2     1  UNL1        0.0040
      9  C          8.4710    1.2360   -0.6640 C.2     1  UNL1        0.0040
     10  C          6.9480   -0.5680   -2.0500 C.2     1  UNL1        0.0000
     11  C          9.0230    0.4820   -1.6770 C.2     1  UNL1        0.0000
     12  C          8.2790   -0.4320   -2.3890 C.2     1  UNL1        0.0000
@<TRIPOS>BOND
     1    12    10    2
     2    12    11    1
     3    10     8    1
     4    11     9    2
     5     8     7    2
     6     9     7    1
     7     7     6    1
     8     1     6    1
     9     1     2    1
    10     2     3    2
    11     2     4    1
    12     5     4    1
