@<TRIPOS>MOLECULE
/home/cewinharhar/GITHUB/reincatalyze/data/processed/docking_pred/2023-Apr-25-2248_maxeplen10_maxtrainstep1000_exh16_gamma099_lrac3e-4_lrcr1e-3/777751631f294be45381376aa4be6161cfc72981_ligand_2.pdbqt
 12 12 0 0 0
SMALL
GASTEIGER

@<TRIPOS>ATOM
      1  C          7.9330   -0.7320   -2.1670 C.3     1  UNL1        0.1270
      2  C          8.1770   -1.9210   -3.0030 C.2     1  UNL1        0.3030
      3  O          9.3470   -2.3870   -3.0780 O.2     1  UNL1       -0.2520
      4  O          7.1510   -2.5560   -3.7180 O.3     1  UNL1       -0.4810
      5  H          6.9740   -3.5360   -3.5420 H       1  UNL1        0.2960
      6  C          7.7370   -1.0890   -0.7050 C.3     1  UNL1        0.0470
      7  C          6.7540   -0.1780   -0.0610 C.2     1  UNL1       -0.0470
      8  C          6.3170    0.9660   -0.7130 C.2     1  UNL1        0.0040
      9  C          6.2370   -0.4070    1.2010 C.2     1  UNL1        0.0040
     10  C          5.4160    1.8340   -0.1400 C.2     1  UNL1        0.0000
     11  C          5.3350    0.4630    1.7730 C.2     1  UNL1        0.0000
     12  C          4.9060    1.5970    1.1210 C.2     1  UNL1        0.0000
@<TRIPOS>BOND
     1     4     5    1
     2     4     2    1
     3     3     2    2
     4     2     1    1
     5     1     6    1
     6     8    10    1
     7     8     7    2
     8     6     7    1
     9    10    12    2
    10     7     9    1
    11    12    11    1
    12     9    11    2
