@<TRIPOS>MOLECULE
/home/cewinharhar/GITHUB/reincatalyze/data/processed/docking_pred/2023-Apr-25-2248_maxeplen10_maxtrainstep1000_exh16_gamma099_lrac3e-4_lrcr1e-3/777751631f294be45381376aa4be6161cfc72981_ligand_2.pdbqt
 12 12 0 0 0
SMALL
GASTEIGER

@<TRIPOS>ATOM
      1  C          5.4950    2.8580    0.0350 C.3     1  UNL1        0.1270
      2  C          6.2480    3.8630    0.8060 C.2     1  UNL1        0.3030
      3  O          6.8730    4.7670    0.1880 O.2     1  UNL1       -0.2520
      4  O          6.2920    3.8510    2.2080 O.3     1  UNL1       -0.4810
      5  H          6.4190    4.7280    2.6950 H       1  UNL1        0.2960
      6  C          4.8920    1.7860    0.9240 C.3     1  UNL1        0.0470
      7  C          5.7420    0.5670    0.9390 C.2     1  UNL1       -0.0470
      8  C          5.7380   -0.2850    2.0350 C.2     1  UNL1        0.0040
      9  C          6.5750    0.2220   -0.1090 C.2     1  UNL1        0.0040
     10  C          6.5220   -1.4160    2.0830 C.2     1  UNL1        0.0000
     11  C          7.3590   -0.9110   -0.0590 C.2     1  UNL1        0.0000
     12  C          7.3510   -1.7500    1.0320 C.2     1  UNL1        0.0000
@<TRIPOS>BOND
     1     9    11    1
     2     9     7    2
     3    11    12    2
     4     1     2    1
     5     1     6    1
     6     3     2    2
     7     2     4    1
     8     6     7    1
     9     7     8    1
    10    12    10    1
    11     8    10    2
    12     4     5    1
