@<TRIPOS>MOLECULE
/home/cewinharhar/GITHUB/reincatalyze/data/processed/docking_pred/2023-Apr-25-2248_maxeplen10_maxtrainstep1000_exh16_gamma099_lrac3e-4_lrcr1e-3/79094ef31ed65e340e791eab6f4e997ef8bc8970_ligand_2.pdbqt
 12 12 0 0 0
SMALL
GASTEIGER

@<TRIPOS>ATOM
      1  C          8.3990   -0.5960   -2.2010 C.3     1  UNL1        0.1270
      2  C          8.4350   -1.8930   -2.9000 C.2     1  UNL1        0.3030
      3  O          9.5400   -2.4860   -3.0320 O.2     1  UNL1       -0.2520
      4  O          7.2810   -2.4920   -3.4250 O.3     1  UNL1       -0.4810
      5  H          6.8890   -2.1200   -4.2790 H       1  UNL1        0.2960
      6  C          7.0050    0.0060   -2.1810 C.3     1  UNL1        0.0470
      7  C          6.4880    0.1060   -0.7910 C.2     1  UNL1       -0.0470
      8  C          6.6220   -0.9560    0.0920 C.2     1  UNL1        0.0040
      9  C          5.8480    1.2340   -0.3100 C.2     1  UNL1        0.0040
     10  C          6.1450   -0.8980    1.3820 C.2     1  UNL1        0.0000
     11  C          5.3710    1.2900    0.9820 C.2     1  UNL1        0.0000
     12  C          5.5060    0.2320    1.8520 C.2     1  UNL1        0.0000
@<TRIPOS>BOND
     1     5     4    1
     2     4     2    1
     3     3     2    2
     4     2     1    1
     5     1     6    1
     6     6     7    1
     7     7     9    2
     8     7     8    1
     9     9    11    1
    10     8    10    2
    11    11    12    2
    12    10    12    1
