@<TRIPOS>MOLECULE
/home/cewinharhar/GITHUB/reincatalyze/data/processed/docking_pred/2023-Apr-25-2248_maxeplen10_maxtrainstep1000_exh16_gamma099_lrac3e-4_lrcr1e-3/79094ef31ed65e340e791eab6f4e997ef8bc8970_ligand_2.pdbqt
 12 12 0 0 0
SMALL
GASTEIGER

@<TRIPOS>ATOM
      1  C          5.0030    1.7840    0.7340 C.3     1  UNL1        0.1270
      2  C          4.4710    1.1120    1.9330 C.2     1  UNL1        0.3030
      3  O          5.1560    0.2060    2.4820 O.2     1  UNL1       -0.2520
      4  O          3.2270    1.4460    2.4880 O.3     1  UNL1       -0.4810
      5  H          3.2060    1.8810    3.4000 H       1  UNL1        0.2960
      6  C          6.5150    1.9150    0.7740 C.3     1  UNL1        0.0470
      7  C          7.1470    1.1280   -0.3160 C.2     1  UNL1       -0.0470
      8  C          6.4040    0.2170   -1.0540 C.2     1  UNL1        0.0040
      9  C          8.4850    1.2450   -0.6460 C.2     1  UNL1        0.0040
     10  C          6.9620   -0.5340   -2.0630 C.2     1  UNL1        0.0000
     11  C          9.0420    0.4920   -1.6570 C.2     1  UNL1        0.0000
     12  C          8.2980   -0.4100   -2.3830 C.2     1  UNL1        0.0000
@<TRIPOS>BOND
     1    12    10    2
     2    12    11    1
     3    10     8    1
     4    11     9    2
     5     8     7    2
     6     9     7    1
     7     7     6    1
     8     1     6    1
     9     1     2    1
    10     2     3    2
    11     2     4    1
    12     4     5    1
