MODEL 1
REMARK VINA RESULT:      -7.3      0.000      0.000
REMARK SMILES O=C(O)CCc1ccccc1
REMARK SMILES IDX 4 1 2 2 1 3 3 4 5 6 6 7 7 8 11 9 8 10 10 11 9 12
REMARK H PARENT 3 5
REMARK Flexibility Score: inf
ROOT
ATOM      1  C   UNL     1       8.399  -0.596  -2.201  1.00  0.00     0.127 C 
ENDROOT
BRANCH   1   2
ATOM      2  C   UNL     1       8.435  -1.893  -2.900  1.00  0.00     0.303 C 
ATOM      3  O   UNL     1       9.540  -2.486  -3.032  1.00  0.00    -0.252 OA
BRANCH   2   4
ATOM      4  O   UNL     1       7.281  -2.492  -3.425  1.00  0.00    -0.481 OA
ATOM      5  H   UNL     1       6.889  -2.120  -4.279  1.00  0.00     0.296 HD
ENDBRANCH   2   4
ENDBRANCH   1   2
BRANCH   1   6
ATOM      6  C   UNL     1       7.005   0.006  -2.181  1.00  0.00     0.047 C 
BRANCH   6   7
ATOM      7  C   UNL     1       6.488   0.106  -0.791  1.00  0.00    -0.047 A 
ATOM      8  C   UNL     1       6.622  -0.956   0.092  1.00  0.00     0.004 A 
ATOM      9  C   UNL     1       5.848   1.234  -0.310  1.00  0.00     0.004 A 
ATOM     10  C   UNL     1       6.145  -0.898   1.382  1.00  0.00     0.000 A 
ATOM     11  C   UNL     1       5.371   1.290   0.982  1.00  0.00     0.000 A 
ATOM     12  C   UNL     1       5.506   0.232   1.852  1.00  0.00     0.000 A 
ENDBRANCH   6   7
ENDBRANCH   1   6
TORSDOF 4
ENDMDL
MODEL 2
REMARK VINA RESULT:      -7.2      0.108      1.722
REMARK SMILES O=C(O)CCc1ccccc1
REMARK SMILES IDX 4 1 2 2 1 3 3 4 5 6 6 7 7 8 11 9 8 10 10 11 9 12
REMARK H PARENT 3 5
REMARK Flexibility Score: inf
ROOT
ATOM      1  C   UNL     1       8.416  -0.628  -2.164  1.00  0.00     0.127 C 
ENDROOT
BRANCH   1   2
ATOM      2  C   UNL     1       8.406  -1.903  -2.903  1.00  0.00     0.303 C 
ATOM      3  O   UNL     1       7.300  -2.417  -3.222  1.00  0.00    -0.252 OA
BRANCH   2   4
ATOM      4  O   UNL     1       9.587  -2.566  -3.266  1.00  0.00    -0.481 OA
ATOM      5  H   UNL     1      10.219  -2.110  -3.911  1.00  0.00     0.296 HD
ENDBRANCH   2   4
ENDBRANCH   1   2
BRANCH   1   6
ATOM      6  C   UNL     1       7.049   0.032  -2.141  1.00  0.00     0.047 C 
BRANCH   6   7
ATOM      7  C   UNL     1       6.502   0.075  -0.759  1.00  0.00    -0.047 A 
ATOM      8  C   UNL     1       5.838   1.202  -0.296  1.00  0.00     0.004 A 
ATOM      9  C   UNL     1       6.629  -0.977   0.129  1.00  0.00     0.004 A 
ATOM     10  C   UNL     1       5.329   1.277   0.980  1.00  0.00     0.000 A 
ATOM     11  C   UNL     1       6.118  -0.901   1.407  1.00  0.00     0.000 A 
ATOM     12  C   UNL     1       5.462   0.221   1.860  1.00  0.00     0.000 A 
ENDBRANCH   6   7
ENDBRANCH   1   6
TORSDOF 4
ENDMDL
MODEL 3
REMARK VINA RESULT:      -6.8      3.396      5.061
REMARK SMILES O=C(O)CCc1ccccc1
REMARK SMILES IDX 4 1 2 2 1 3 3 4 5 6 6 7 7 8 11 9 8 10 10 11 9 12
REMARK H PARENT 3 5
REMARK Flexibility Score: inf
ROOT
ATOM      1  C   UNL     1       5.003   1.784   0.734  1.00  0.00     0.127 C 
ENDROOT
BRANCH   1   2
ATOM      2  C   UNL     1       4.471   1.112   1.933  1.00  0.00     0.303 C 
ATOM      3  O   UNL     1       5.156   0.206   2.482  1.00  0.00    -0.252 OA
BRANCH   2   4
ATOM      4  O   UNL     1       3.227   1.446   2.488  1.00  0.00    -0.481 OA
ATOM      5  H   UNL     1       3.206   1.881   3.400  1.00  0.00     0.296 HD
ENDBRANCH   2   4
ENDBRANCH   1   2
BRANCH   1   6
ATOM      6  C   UNL     1       6.515   1.915   0.774  1.00  0.00     0.047 C 
BRANCH   6   7
ATOM      7  C   UNL     1       7.147   1.128  -0.316  1.00  0.00    -0.047 A 
ATOM      8  C   UNL     1       6.404   0.217  -1.054  1.00  0.00     0.004 A 
ATOM      9  C   UNL     1       8.485   1.245  -0.646  1.00  0.00     0.004 A 
ATOM     10  C   UNL     1       6.962  -0.534  -2.063  1.00  0.00     0.000 A 
ATOM     11  C   UNL     1       9.042   0.492  -1.657  1.00  0.00     0.000 A 
ATOM     12  C   UNL     1       8.298  -0.410  -2.383  1.00  0.00     0.000 A 
ENDBRANCH   6   7
ENDBRANCH   1   6
TORSDOF 4
ENDMDL
MODEL 4
REMARK VINA RESULT:      -6.6      1.942      2.921
REMARK SMILES O=C(O)CCc1ccccc1
REMARK SMILES IDX 4 1 2 2 1 3 3 4 5 6 6 7 7 8 11 9 8 10 10 11 9 12
REMARK H PARENT 3 5
REMARK Flexibility Score: inf
ROOT
ATOM      1  C   UNL     1       8.270  -1.669   1.179  1.00  0.00     0.127 C 
ENDROOT
BRANCH   1   2
ATOM      2  C   UNL     1       8.669  -2.898   0.471  1.00  0.00     0.303 C 
ATOM      3  O   UNL     1       9.401  -3.736   1.064  1.00  0.00    -0.252 OA
BRANCH   2   4
ATOM      4  O   UNL     1       8.262  -3.170  -0.843  1.00  0.00    -0.481 OA
ATOM      5  H   UNL     1       8.517  -4.057  -1.255  1.00  0.00     0.296 HD
ENDBRANCH   2   4
ENDBRANCH   1   2
BRANCH   1   6
ATOM      6  C   UNL     1       6.769  -1.596   1.399  1.00  0.00     0.047 C 
BRANCH   6   7
ATOM      7  C   UNL     1       6.213  -0.327   0.860  1.00  0.00    -0.047 A 
ATOM      8  C   UNL     1       6.473   0.060  -0.447  1.00  0.00     0.004 A 
ATOM      9  C   UNL     1       5.431   0.527   1.614  1.00  0.00     0.004 A 
ATOM     10  C   UNL     1       5.982   1.233  -0.973  1.00  0.00     0.000 A 
ATOM     11  C   UNL     1       4.940   1.702   1.086  1.00  0.00     0.000 A 
ATOM     12  C   UNL     1       5.203   2.080  -0.211  1.00  0.00     0.000 A 
ENDBRANCH   6   7
ENDBRANCH   1   6
TORSDOF 4
ENDMDL
MODEL 5
REMARK VINA RESULT:      -6.5      2.077      2.752
REMARK SMILES O=C(O)CCc1ccccc1
REMARK SMILES IDX 4 1 2 2 1 3 3 4 5 6 6 7 7 8 11 9 8 10 10 11 9 12
REMARK H PARENT 3 5
REMARK Flexibility Score: inf
ROOT
ATOM      1  C   UNL     1       8.511   0.632  -1.636  1.00  0.00     0.127 C 
ENDROOT
BRANCH   1   2
ATOM      2  C   UNL     1       9.672   0.274  -0.802  1.00  0.00     0.303 C 
ATOM      3  O   UNL     1       9.509  -0.511   0.170  1.00  0.00    -0.252 OA
BRANCH   2   4
ATOM      4  O   UNL     1      10.957   0.778  -1.053  1.00  0.00    -0.481 OA
ATOM      5  H   UNL     1      11.755   0.202  -0.822  1.00  0.00     0.296 HD
ENDBRANCH   2   4
ENDBRANCH   1   2
BRANCH   1   6
ATOM      6  C   UNL     1       7.329  -0.291  -1.400  1.00  0.00     0.047 C 
BRANCH   6   7
ATOM      7  C   UNL     1       6.428   0.256  -0.352  1.00  0.00    -0.047 A 
ATOM      8  C   UNL     1       5.810   1.487  -0.522  1.00  0.00     0.004 A 
ATOM      9  C   UNL     1       6.166  -0.409   0.832  1.00  0.00     0.004 A 
ATOM     10  C   UNL     1       4.979   2.025   0.434  1.00  0.00     0.000 A 
ATOM     11  C   UNL     1       5.333   0.131   1.788  1.00  0.00     0.000 A 
ATOM     12  C   UNL     1       4.725   1.353   1.613  1.00  0.00     0.000 A 
ENDBRANCH   6   7
ENDBRANCH   1   6
TORSDOF 4
ENDMDL
