@<TRIPOS>MOLECULE
/home/cewinharhar/GITHUB/reincatalyze/data/processed/docking_pred/2023-Apr-25-2248_maxeplen10_maxtrainstep1000_exh16_gamma099_lrac3e-4_lrcr1e-3/79094ef31ed65e340e791eab6f4e997ef8bc8970_ligand_2.pdbqt
 12 12 0 0 0
SMALL
GASTEIGER

@<TRIPOS>ATOM
      1  C          8.5110    0.6320   -1.6360 C.3     1  UNL1        0.1270
      2  C          9.6720    0.2740   -0.8020 C.2     1  UNL1        0.3030
      3  O          9.5090   -0.5110    0.1700 O.2     1  UNL1       -0.2520
      4  O         10.9570    0.7780   -1.0530 O.3     1  UNL1       -0.4810
      5  H         11.7550    0.2020   -0.8220 H       1  UNL1        0.2960
      6  C          7.3290   -0.2910   -1.4000 C.3     1  UNL1        0.0470
      7  C          6.4280    0.2560   -0.3520 C.2     1  UNL1       -0.0470
      8  C          5.8100    1.4870   -0.5220 C.2     1  UNL1        0.0040
      9  C          6.1660   -0.4090    0.8320 C.2     1  UNL1        0.0040
     10  C          4.9790    2.0250    0.4340 C.2     1  UNL1        0.0000
     11  C          5.3330    0.1310    1.7880 C.2     1  UNL1        0.0000
     12  C          4.7250    1.3530    1.6130 C.2     1  UNL1        0.0000
@<TRIPOS>BOND
     1     1     6    1
     2     1     2    1
     3     6     7    1
     4     4     5    1
     5     4     2    1
     6     2     3    2
     7     8     7    2
     8     8    10    1
     9     7     9    1
    10    10    12    2
    11     9    11    2
    12    12    11    1
