@<TRIPOS>MOLECULE
/home/cewinharhar/GITHUB/reincatalyze/data/processed/docking_pred/2023-Apr-25-2248_maxeplen10_maxtrainstep1000_exh16_gamma099_lrac3e-4_lrcr1e-3/79094ef31ed65e340e791eab6f4e997ef8bc8970_ligand_2.pdbqt
 12 12 0 0 0
SMALL
GASTEIGER

@<TRIPOS>ATOM
      1  C          8.4160   -0.6280   -2.1640 C.3     1  UNL1        0.1270
      2  C          8.4060   -1.9030   -2.9030 C.2     1  UNL1        0.3030
      3  O          7.3000   -2.4170   -3.2220 O.2     1  UNL1       -0.2520
      4  O          9.5870   -2.5660   -3.2660 O.3     1  UNL1       -0.4810
      5  H         10.2190   -2.1100   -3.9110 H       1  UNL1        0.2960
      6  C          7.0490    0.0320   -2.1410 C.3     1  UNL1        0.0470
      7  C          6.5020    0.0750   -0.7590 C.2     1  UNL1       -0.0470
      8  C          5.8380    1.2020   -0.2960 C.2     1  UNL1        0.0040
      9  C          6.6290   -0.9770    0.1290 C.2     1  UNL1        0.0040
     10  C          5.3290    1.2770    0.9800 C.2     1  UNL1        0.0000
     11  C          6.1180   -0.9010    1.4070 C.2     1  UNL1        0.0000
     12  C          5.4620    0.2210    1.8600 C.2     1  UNL1        0.0000
@<TRIPOS>BOND
     1     5     4    1
     2     4     2    1
     3     3     2    2
     4     2     1    1
     5     1     6    1
     6     6     7    1
     7     7     8    2
     8     7     9    1
     9     8    10    1
    10     9    11    2
    11    10    12    2
    12    11    12    1
