@<TRIPOS>MOLECULE
/home/cewinharhar/GITHUB/reincatalyze/data/processed/docking_pred/2023-Apr-25-2248_maxeplen10_maxtrainstep1000_exh16_gamma099_lrac3e-4_lrcr1e-3/79094ef31ed65e340e791eab6f4e997ef8bc8970_ligand_2.pdbqt
 12 12 0 0 0
SMALL
GASTEIGER

@<TRIPOS>ATOM
      1  C          8.2700   -1.6690    1.1790 C.3     1  UNL1        0.1270
      2  C          8.6690   -2.8980    0.4710 C.2     1  UNL1        0.3030
      3  O          9.4010   -3.7360    1.0640 O.2     1  UNL1       -0.2520
      4  O          8.2620   -3.1700   -0.8430 O.3     1  UNL1       -0.4810
      5  H          8.5170   -4.0570   -1.2550 H       1  UNL1        0.2960
      6  C          6.7690   -1.5960    1.3990 C.3     1  UNL1        0.0470
      7  C          6.2130   -0.3270    0.8600 C.2     1  UNL1       -0.0470
      8  C          6.4730    0.0600   -0.4470 C.2     1  UNL1        0.0040
      9  C          5.4310    0.5270    1.6140 C.2     1  UNL1        0.0040
     10  C          5.9820    1.2330   -0.9730 C.2     1  UNL1        0.0000
     11  C          4.9400    1.7020    1.0860 C.2     1  UNL1        0.0000
     12  C          5.2030    2.0800   -0.2110 C.2     1  UNL1        0.0000
@<TRIPOS>BOND
     1     5     4    1
     2    10     8    1
     3    10    12    2
     4     4     2    1
     5     8     7    2
     6    12    11    1
     7     2     3    2
     8     2     1    1
     9     7     6    1
    10     7     9    1
    11    11     9    2
    12     1     6    1
