@<TRIPOS>MOLECULE
/home/cewinharhar/GITHUB/reincatalyze/data/processed/docking_pred/2023-Apr-25-2248_maxeplen10_maxtrainstep1000_exh16_gamma099_lrac3e-4_lrcr1e-3/79495f175fd15f32955b26bb978cae7af324a937_ligand_2.pdbqt
 12 12 0 0 0
SMALL
GASTEIGER

@<TRIPOS>ATOM
      1  C          5.8560   -0.8950    1.7220 C.3     1  UNL1        0.1270
      2  C          5.3370    0.4460    2.0420 C.2     1  UNL1        0.3030
      3  O          4.1700    0.5570    2.5060 O.2     1  UNL1       -0.2520
      4  O          6.1000    1.6080    1.8510 O.3     1  UNL1       -0.4810
      5  H          5.9950    2.1170    0.9840 H       1  UNL1        0.2960
      6  C          7.3590   -0.8930    1.5050 C.3     1  UNL1        0.0470
      7  C          7.6890   -0.7200    0.0670 C.2     1  UNL1       -0.0470
      8  C          6.8680   -1.2510   -0.9170 C.2     1  UNL1        0.0040
      9  C          8.8150   -0.0440   -0.3660 C.2     1  UNL1        0.0040
     10  C          7.1520   -1.1170   -2.2570 C.2     1  UNL1        0.0000
     11  C          9.0980    0.0900   -1.7090 C.2     1  UNL1        0.0000
     12  C          8.2790   -0.4410   -2.6790 C.2     1  UNL1        0.0000
@<TRIPOS>BOND
     1    12    10    2
     2    12    11    1
     3    10     8    1
     4    11     9    2
     5     8     7    2
     6     9     7    1
     7     7     6    1
     8     5     4    1
     9     6     1    1
    10     1     2    1
    11     4     2    1
    12     2     3    2
