@<TRIPOS>MOLECULE
/home/cewinharhar/GITHUB/reincatalyze/data/processed/docking_pred/2023-Apr-25-2248_maxeplen10_maxtrainstep1000_exh16_gamma099_lrac3e-4_lrcr1e-3/79495f175fd15f32955b26bb978cae7af324a937_ligand_2.pdbqt
 12 12 0 0 0
SMALL
GASTEIGER

@<TRIPOS>ATOM
      1  C          8.3410   -0.7260   -2.1750 C.3     1  UNL1        0.1270
      2  C          8.4680   -1.9730   -2.9510 C.2     1  UNL1        0.3030
      3  O          7.4230   -2.5960   -3.2840 O.2     1  UNL1       -0.2520
      4  O          9.7130   -2.4920   -3.3340 O.3     1  UNL1       -0.4810
      5  H         10.1990   -3.1050   -2.6930 H       1  UNL1        0.2960
      6  C          6.9010   -0.4320   -1.7930 C.3     1  UNL1        0.0470
      7  C          6.6840   -0.6380   -0.3380 C.2     1  UNL1       -0.0470
      8  C          5.8620    0.2170    0.3830 C.2     1  UNL1        0.0040
      9  C          7.2820   -1.6650    0.3700 C.2     1  UNL1        0.0040
     10  C          5.6490    0.0590    1.7330 C.2     1  UNL1        0.0000
     11  C          7.0670   -1.8210    1.7230 C.2     1  UNL1        0.0000
     12  C          6.2510   -0.9680    2.4310 C.2     1  UNL1        0.0000
@<TRIPOS>BOND
     1     4     2    1
     2     4     5    1
     3     3     2    2
     4     2     1    1
     5     1     6    1
     6     6     7    1
     7     7     9    2
     8     7     8    1
     9     9    11    1
    10     8    10    2
    11    11    12    2
    12    10    12    1
