@<TRIPOS>MOLECULE
/home/cewinharhar/GITHUB/reincatalyze/data/processed/docking_pred/2023-Apr-25-2248_maxeplen10_maxtrainstep1000_exh16_gamma099_lrac3e-4_lrcr1e-3/79495f175fd15f32955b26bb978cae7af324a937_ligand_2.pdbqt
 12 12 0 0 0
SMALL
GASTEIGER

@<TRIPOS>ATOM
      1  C          8.3090   -1.2480   -2.0100 C.3     1  UNL1        0.1270
      2  C          8.9480    0.0800   -2.0220 C.2     1  UNL1        0.3030
      3  O          8.4020    1.0160   -2.6680 O.2     1  UNL1       -0.2520
      4  O         10.1430    0.3420   -1.3360 O.3     1  UNL1       -0.4810
      5  H         10.0960    0.8310   -0.4520 H       1  UNL1        0.2960
      6  C          6.8240   -1.1680   -1.7050 C.3     1  UNL1        0.0470
      7  C          6.5900   -0.9450   -0.2550 C.2     1  UNL1       -0.0470
      8  C          7.0830   -1.8360    0.6870 C.2     1  UNL1        0.0040
      9  C          5.8730    0.1330    0.2300 C.2     1  UNL1        0.0040
     10  C          6.8740   -1.6640    2.0360 C.2     1  UNL1        0.0000
     11  C          5.6640    0.3050    1.5820 C.2     1  UNL1        0.0000
     12  C          6.1560   -0.5840    2.5100 C.2     1  UNL1        0.0000
@<TRIPOS>BOND
     1     3     2    2
     2     2     1    1
     3     2     4    1
     4     1     6    1
     5     6     7    1
     6     4     5    1
     7     7     9    2
     8     7     8    1
     9     9    11    1
    10     8    10    2
    11    11    12    2
    12    10    12    1
