MODEL 1
REMARK VINA RESULT:      -6.3      0.000      0.000
REMARK SMILES O=C(O)CCc1ccccc1
REMARK SMILES IDX 4 1 2 2 1 3 3 4 5 6 6 7 7 8 11 9 8 10 10 11 9 12
REMARK H PARENT 3 5
REMARK Flexibility Score: inf
ROOT
ATOM      1  C   UNL     1       8.373  -0.910  -1.994  1.00  0.00     0.127 C 
ENDROOT
BRANCH   1   2
ATOM      2  C   UNL     1       8.469  -2.063  -2.906  1.00  0.00     0.303 C 
ATOM      3  O   UNL     1       9.603  -2.561  -3.145  1.00  0.00    -0.252 OA
BRANCH   2   4
ATOM      4  O   UNL     1       7.341  -2.629  -3.518  1.00  0.00    -0.481 OA
ATOM      5  H   UNL     1       7.309  -3.632  -3.639  1.00  0.00     0.296 HD
ENDBRANCH   2   4
ENDBRANCH   1   2
BRANCH   1   6
ATOM      6  C   UNL     1       6.932  -0.540  -1.686  1.00  0.00     0.047 C 
BRANCH   6   7
ATOM      7  C   UNL     1       6.658  -0.635  -0.228  1.00  0.00    -0.047 A 
ATOM      8  C   UNL     1       7.216  -1.652   0.532  1.00  0.00     0.004 A 
ATOM      9  C   UNL     1       5.840   0.259   0.439  1.00  0.00     0.004 A 
ATOM     10  C   UNL     1       6.973  -1.773   1.881  1.00  0.00     0.000 A 
ATOM     11  C   UNL     1       5.598   0.136   1.790  1.00  0.00     0.000 A 
ATOM     12  C   UNL     1       6.155  -0.877   2.538  1.00  0.00     0.000 A 
ENDBRANCH   6   7
ENDBRANCH   1   6
TORSDOF 4
ENDMDL
MODEL 2
REMARK VINA RESULT:      -6.3      3.241      5.026
REMARK SMILES O=C(O)CCc1ccccc1
REMARK SMILES IDX 4 1 2 2 1 3 3 4 5 6 6 7 7 8 11 9 8 10 10 11 9 12
REMARK H PARENT 3 5
REMARK Flexibility Score: inf
ROOT
ATOM      1  C   UNL     1       5.856  -0.895   1.722  1.00  0.00     0.127 C 
ENDROOT
BRANCH   1   2
ATOM      2  C   UNL     1       5.337   0.446   2.042  1.00  0.00     0.303 C 
ATOM      3  O   UNL     1       4.170   0.557   2.506  1.00  0.00    -0.252 OA
BRANCH   2   4
ATOM      4  O   UNL     1       6.100   1.608   1.851  1.00  0.00    -0.481 OA
ATOM      5  H   UNL     1       5.995   2.117   0.984  1.00  0.00     0.296 HD
ENDBRANCH   2   4
ENDBRANCH   1   2
BRANCH   1   6
ATOM      6  C   UNL     1       7.359  -0.893   1.505  1.00  0.00     0.047 C 
BRANCH   6   7
ATOM      7  C   UNL     1       7.689  -0.720   0.067  1.00  0.00    -0.047 A 
ATOM      8  C   UNL     1       6.868  -1.251  -0.917  1.00  0.00     0.004 A 
ATOM      9  C   UNL     1       8.815  -0.044  -0.366  1.00  0.00     0.004 A 
ATOM     10  C   UNL     1       7.152  -1.117  -2.257  1.00  0.00     0.000 A 
ATOM     11  C   UNL     1       9.098   0.090  -1.709  1.00  0.00     0.000 A 
ATOM     12  C   UNL     1       8.279  -0.441  -2.679  1.00  0.00     0.000 A 
ENDBRANCH   6   7
ENDBRANCH   1   6
TORSDOF 4
ENDMDL
MODEL 3
REMARK VINA RESULT:      -6.3      0.177      1.728
REMARK SMILES O=C(O)CCc1ccccc1
REMARK SMILES IDX 4 1 2 2 1 3 3 4 5 6 6 7 7 8 11 9 8 10 10 11 9 12
REMARK H PARENT 3 5
REMARK Flexibility Score: inf
ROOT
ATOM      1  C   UNL     1       8.341  -0.726  -2.175  1.00  0.00     0.127 C 
ENDROOT
BRANCH   1   2
ATOM      2  C   UNL     1       8.468  -1.973  -2.951  1.00  0.00     0.303 C 
ATOM      3  O   UNL     1       7.423  -2.596  -3.284  1.00  0.00    -0.252 OA
BRANCH   2   4
ATOM      4  O   UNL     1       9.713  -2.492  -3.334  1.00  0.00    -0.481 OA
ATOM      5  H   UNL     1      10.199  -3.105  -2.693  1.00  0.00     0.296 HD
ENDBRANCH   2   4
ENDBRANCH   1   2
BRANCH   1   6
ATOM      6  C   UNL     1       6.901  -0.432  -1.793  1.00  0.00     0.047 C 
BRANCH   6   7
ATOM      7  C   UNL     1       6.684  -0.638  -0.338  1.00  0.00    -0.047 A 
ATOM      8  C   UNL     1       5.862   0.217   0.383  1.00  0.00     0.004 A 
ATOM      9  C   UNL     1       7.282  -1.665   0.370  1.00  0.00     0.004 A 
ATOM     10  C   UNL     1       5.649   0.059   1.733  1.00  0.00     0.000 A 
ATOM     11  C   UNL     1       7.067  -1.821   1.723  1.00  0.00     0.000 A 
ATOM     12  C   UNL     1       6.251  -0.968   2.431  1.00  0.00     0.000 A 
ENDBRANCH   6   7
ENDBRANCH   1   6
TORSDOF 4
ENDMDL
MODEL 4
REMARK VINA RESULT:      -6.2      3.242      4.942
REMARK SMILES O=C(O)CCc1ccccc1
REMARK SMILES IDX 4 1 2 2 1 3 3 4 5 6 6 7 7 8 11 9 8 10 10 11 9 12
REMARK H PARENT 3 5
REMARK Flexibility Score: inf
ROOT
ATOM      1  C   UNL     1       6.007  -0.816   1.856  1.00  0.00     0.127 C 
ENDROOT
BRANCH   1   2
ATOM      2  C   UNL     1       5.384   0.505   2.048  1.00  0.00     0.303 C 
ATOM      3  O   UNL     1       6.063   1.542   1.813  1.00  0.00    -0.252 OA
BRANCH   2   4
ATOM      4  O   UNL     1       4.059   0.651   2.483  1.00  0.00    -0.481 OA
ATOM      5  H   UNL     1       3.409  -0.104   2.313  1.00  0.00     0.296 HD
ENDBRANCH   2   4
ENDBRANCH   1   2
BRANCH   1   6
ATOM      6  C   UNL     1       7.491  -0.713   1.550  1.00  0.00     0.047 C 
BRANCH   6   7
ATOM      7  C   UNL     1       7.731  -0.664   0.085  1.00  0.00    -0.047 A 
ATOM      8  C   UNL     1       8.842  -0.011  -0.430  1.00  0.00     0.004 A 
ATOM      9  C   UNL     1       6.876  -1.246  -0.834  1.00  0.00     0.004 A 
ATOM     10  C   UNL     1       9.087   0.060  -1.782  1.00  0.00     0.000 A 
ATOM     11  C   UNL     1       7.122  -1.174  -2.188  1.00  0.00     0.000 A 
ATOM     12  C   UNL     1       8.226  -0.522  -2.690  1.00  0.00     0.000 A 
ENDBRANCH   6   7
ENDBRANCH   1   6
TORSDOF 4
ENDMDL
MODEL 5
REMARK VINA RESULT:      -5.8      1.640      1.965
REMARK SMILES O=C(O)CCc1ccccc1
REMARK SMILES IDX 4 1 2 2 1 3 3 4 5 6 6 7 7 8 11 9 8 10 10 11 9 12
REMARK H PARENT 3 5
REMARK Flexibility Score: inf
ROOT
ATOM      1  C   UNL     1       8.309  -1.248  -2.010  1.00  0.00     0.127 C 
ENDROOT
BRANCH   1   2
ATOM      2  C   UNL     1       8.948   0.080  -2.022  1.00  0.00     0.303 C 
ATOM      3  O   UNL     1       8.402   1.016  -2.668  1.00  0.00    -0.252 OA
BRANCH   2   4
ATOM      4  O   UNL     1      10.143   0.342  -1.336  1.00  0.00    -0.481 OA
ATOM      5  H   UNL     1      10.096   0.831  -0.452  1.00  0.00     0.296 HD
ENDBRANCH   2   4
ENDBRANCH   1   2
BRANCH   1   6
ATOM      6  C   UNL     1       6.824  -1.168  -1.705  1.00  0.00     0.047 C 
BRANCH   6   7
ATOM      7  C   UNL     1       6.590  -0.945  -0.255  1.00  0.00    -0.047 A 
ATOM      8  C   UNL     1       7.083  -1.836   0.687  1.00  0.00     0.004 A 
ATOM      9  C   UNL     1       5.873   0.133   0.230  1.00  0.00     0.004 A 
ATOM     10  C   UNL     1       6.874  -1.664   2.036  1.00  0.00     0.000 A 
ATOM     11  C   UNL     1       5.664   0.305   1.582  1.00  0.00     0.000 A 
ATOM     12  C   UNL     1       6.156  -0.584   2.510  1.00  0.00     0.000 A 
ENDBRANCH   6   7
ENDBRANCH   1   6
TORSDOF 4
ENDMDL
