@<TRIPOS>MOLECULE
/home/cewinharhar/GITHUB/reincatalyze/data/processed/docking_pred/2023-Apr-25-2248_maxeplen10_maxtrainstep1000_exh16_gamma099_lrac3e-4_lrcr1e-3/79495f175fd15f32955b26bb978cae7af324a937_ligand_2.pdbqt
 12 12 0 0 0
SMALL
GASTEIGER

@<TRIPOS>ATOM
      1  C          6.0070   -0.8160    1.8560 C.3     1  UNL1        0.1270
      2  C          5.3840    0.5050    2.0480 C.2     1  UNL1        0.3030
      3  O          6.0630    1.5420    1.8130 O.2     1  UNL1       -0.2520
      4  O          4.0590    0.6510    2.4830 O.3     1  UNL1       -0.4810
      5  H          3.4090   -0.1040    2.3130 H       1  UNL1        0.2960
      6  C          7.4910   -0.7130    1.5500 C.3     1  UNL1        0.0470
      7  C          7.7310   -0.6640    0.0850 C.2     1  UNL1       -0.0470
      8  C          8.8420   -0.0110   -0.4300 C.2     1  UNL1        0.0040
      9  C          6.8760   -1.2460   -0.8340 C.2     1  UNL1        0.0040
     10  C          9.0870    0.0600   -1.7820 C.2     1  UNL1        0.0000
     11  C          7.1220   -1.1740   -2.1880 C.2     1  UNL1        0.0000
     12  C          8.2260   -0.5220   -2.6900 C.2     1  UNL1        0.0000
@<TRIPOS>BOND
     1    12    11    2
     2    12    10    1
     3    11     9    1
     4    10     8    2
     5     9     7    2
     6     8     7    1
     7     7     6    1
     8     6     1    1
     9     3     2    2
    10     1     2    1
    11     2     4    1
    12     5     4    1
