@<TRIPOS>MOLECULE
/home/cewinharhar/GITHUB/reincatalyze/data/processed/docking_pred/2023-Apr-25-2248_maxeplen10_maxtrainstep1000_exh16_gamma099_lrac3e-4_lrcr1e-3/79495f175fd15f32955b26bb978cae7af324a937_ligand_2.pdbqt
 12 12 0 0 0
SMALL
GASTEIGER

@<TRIPOS>ATOM
      1  C          8.3730   -0.9100   -1.9940 C.3     1  UNL1        0.1270
      2  C          8.4690   -2.0630   -2.9060 C.2     1  UNL1        0.3030
      3  O          9.6030   -2.5610   -3.1450 O.2     1  UNL1       -0.2520
      4  O          7.3410   -2.6290   -3.5180 O.3     1  UNL1       -0.4810
      5  H          7.3090   -3.6320   -3.6390 H       1  UNL1        0.2960
      6  C          6.9320   -0.5400   -1.6860 C.3     1  UNL1        0.0470
      7  C          6.6580   -0.6350   -0.2280 C.2     1  UNL1       -0.0470
      8  C          7.2160   -1.6520    0.5320 C.2     1  UNL1        0.0040
      9  C          5.8400    0.2590    0.4390 C.2     1  UNL1        0.0040
     10  C          6.9730   -1.7730    1.8810 C.2     1  UNL1        0.0000
     11  C          5.5980    0.1360    1.7900 C.2     1  UNL1        0.0000
     12  C          6.1550   -0.8770    2.5380 C.2     1  UNL1        0.0000
@<TRIPOS>BOND
     1     5     4    1
     2     4     2    1
     3     3     2    2
     4     2     1    1
     5     1     6    1
     6     6     7    1
     7     7     9    2
     8     7     8    1
     9     9    11    1
    10     8    10    2
    11    11    12    2
    12    10    12    1
