@<TRIPOS>MOLECULE
/home/cewinharhar/GITHUB/reincatalyze/data/processed/docking_pred/2023-Apr-25-2248_maxeplen10_maxtrainstep1000_exh16_gamma099_lrac3e-4_lrcr1e-3/7ac8f9624e71b352d93dccd4dc48cb56e96c53c0_ligand_2.pdbqt
 12 12 0 0 0
SMALL
GASTEIGER

@<TRIPOS>ATOM
      1  C          4.9910    1.7890    0.7380 C.3     1  UNL1        0.1270
      2  C          4.4570    1.1110    1.9330 C.2     1  UNL1        0.3030
      3  O          5.1370    0.1970    2.4730 O.2     1  UNL1       -0.2520
      4  O          3.2170    1.4490    2.4940 O.3     1  UNL1       -0.4810
      5  H          3.2010    2.0590    3.3000 H       1  UNL1        0.2960
      6  C          6.5050    1.8940    0.7670 C.3     1  UNL1        0.0470
      7  C          7.1150    1.0890   -0.3230 C.2     1  UNL1       -0.0470
      8  C          8.4580    1.2330   -0.6420 C.2     1  UNL1        0.0040
      9  C          6.3950    0.1780   -1.0740 C.2     1  UNL1        0.0040
     10  C          9.0500    0.5100   -1.6530 C.2     1  UNL1        0.0000
     11  C          6.9900   -0.5450   -2.0850 C.2     1  UNL1        0.0000
     12  C          8.3220   -0.3960   -2.3970 C.2     1  UNL1        0.0000
@<TRIPOS>BOND
     1    12    11    2
     2    12    10    1
     3    11     9    1
     4    10     8    2
     5     9     7    2
     6     8     7    1
     7     7     6    1
     8     1     6    1
     9     1     2    1
    10     2     3    2
    11     2     4    1
    12     4     5    1
