MODEL 1
REMARK VINA RESULT:      -7.3      0.000      0.000
REMARK SMILES O=C(O)CCc1ccccc1
REMARK SMILES IDX 4 1 2 2 1 3 3 4 5 6 6 7 7 8 11 9 8 10 10 11 9 12
REMARK H PARENT 3 5
REMARK Flexibility Score: inf
ROOT
ATOM      1  C   UNL     1       8.381  -0.652  -2.119  1.00  0.00     0.127 C 
ENDROOT
BRANCH   1   2
ATOM      2  C   UNL     1       8.386  -1.911  -2.885  1.00  0.00     0.303 C 
ATOM      3  O   UNL     1       7.286  -2.408  -3.253  1.00  0.00    -0.252 OA
BRANCH   2   4
ATOM      4  O   UNL     1       9.573  -2.577  -3.222  1.00  0.00    -0.481 OA
ATOM      5  H   UNL     1       9.866  -3.360  -2.653  1.00  0.00     0.296 HD
ENDBRANCH   2   4
ENDBRANCH   1   2
BRANCH   1   6
ATOM      6  C   UNL     1       7.017   0.016  -2.120  1.00  0.00     0.047 C 
BRANCH   6   7
ATOM      7  C   UNL     1       6.462   0.095  -0.744  1.00  0.00    -0.047 A 
ATOM      8  C   UNL     1       5.775   1.224  -0.322  1.00  0.00     0.004 A 
ATOM      9  C   UNL     1       6.602  -0.925   0.180  1.00  0.00     0.004 A 
ATOM     10  C   UNL     1       5.258   1.332   0.949  1.00  0.00     0.000 A 
ATOM     11  C   UNL     1       6.084  -0.816   1.452  1.00  0.00     0.000 A 
ATOM     12  C   UNL     1       5.404   0.309   1.864  1.00  0.00     0.000 A 
ENDBRANCH   6   7
ENDBRANCH   1   6
TORSDOF 4
ENDMDL
MODEL 2
REMARK VINA RESULT:      -7.3      0.050      1.421
REMARK SMILES O=C(O)CCc1ccccc1
REMARK SMILES IDX 4 1 2 2 1 3 3 4 5 6 6 7 7 8 11 9 8 10 10 11 9 12
REMARK H PARENT 3 5
REMARK Flexibility Score: inf
ROOT
ATOM      1  C   UNL     1       8.380  -0.644  -2.139  1.00  0.00     0.127 C 
ENDROOT
BRANCH   1   2
ATOM      2  C   UNL     1       8.387  -1.908  -2.896  1.00  0.00     0.303 C 
ATOM      3  O   UNL     1       7.289  -2.416  -3.251  1.00  0.00    -0.252 OA
BRANCH   2   4
ATOM      4  O   UNL     1       9.576  -2.568  -3.240  1.00  0.00    -0.481 OA
ATOM      5  H   UNL     1      10.278  -2.059  -3.761  1.00  0.00     0.296 HD
ENDBRANCH   2   4
ENDBRANCH   1   2
BRANCH   1   6
ATOM      6  C   UNL     1       7.012   0.015  -2.135  1.00  0.00     0.047 C 
BRANCH   6   7
ATOM      7  C   UNL     1       6.471   0.112  -0.754  1.00  0.00    -0.047 A 
ATOM      8  C   UNL     1       6.613  -0.942   0.137  1.00  0.00     0.004 A 
ATOM      9  C   UNL     1       5.800   1.228  -0.290  1.00  0.00     0.004 A 
ATOM     10  C   UNL     1       6.114  -0.888   1.418  1.00  0.00     0.000 A 
ATOM     11  C   UNL     1       5.301   1.281   0.994  1.00  0.00     0.000 A 
ATOM     12  C   UNL     1       5.445   0.231   1.872  1.00  0.00     0.000 A 
ENDBRANCH   6   7
ENDBRANCH   1   6
TORSDOF 4
ENDMDL
MODEL 3
REMARK VINA RESULT:      -6.8      3.329      5.162
REMARK SMILES O=C(O)CCc1ccccc1
REMARK SMILES IDX 4 1 2 2 1 3 3 4 5 6 6 7 7 8 11 9 8 10 10 11 9 12
REMARK H PARENT 3 5
REMARK Flexibility Score: inf
ROOT
ATOM      1  C   UNL     1       4.991   1.789   0.738  1.00  0.00     0.127 C 
ENDROOT
BRANCH   1   2
ATOM      2  C   UNL     1       4.457   1.111   1.933  1.00  0.00     0.303 C 
ATOM      3  O   UNL     1       5.137   0.197   2.473  1.00  0.00    -0.252 OA
BRANCH   2   4
ATOM      4  O   UNL     1       3.217   1.449   2.494  1.00  0.00    -0.481 OA
ATOM      5  H   UNL     1       3.201   2.059   3.300  1.00  0.00     0.296 HD
ENDBRANCH   2   4
ENDBRANCH   1   2
BRANCH   1   6
ATOM      6  C   UNL     1       6.505   1.894   0.767  1.00  0.00     0.047 C 
BRANCH   6   7
ATOM      7  C   UNL     1       7.115   1.089  -0.323  1.00  0.00    -0.047 A 
ATOM      8  C   UNL     1       8.458   1.233  -0.642  1.00  0.00     0.004 A 
ATOM      9  C   UNL     1       6.395   0.178  -1.074  1.00  0.00     0.004 A 
ATOM     10  C   UNL     1       9.050   0.510  -1.653  1.00  0.00     0.000 A 
ATOM     11  C   UNL     1       6.990  -0.545  -2.085  1.00  0.00     0.000 A 
ATOM     12  C   UNL     1       8.322  -0.396  -2.397  1.00  0.00     0.000 A 
ENDBRANCH   6   7
ENDBRANCH   1   6
TORSDOF 4
ENDMDL
MODEL 4
REMARK VINA RESULT:      -6.6      1.939      2.612
REMARK SMILES O=C(O)CCc1ccccc1
REMARK SMILES IDX 4 1 2 2 1 3 3 4 5 6 6 7 7 8 11 9 8 10 10 11 9 12
REMARK H PARENT 3 5
REMARK Flexibility Score: inf
ROOT
ATOM      1  C   UNL     1       8.266   0.177  -2.166  1.00  0.00     0.127 C 
ENDROOT
BRANCH   1   2
ATOM      2  C   UNL     1       9.387   0.370  -1.229  1.00  0.00     0.303 C 
ATOM      3  O   UNL     1       9.481  -0.385  -0.223  1.00  0.00    -0.252 OA
BRANCH   2   4
ATOM      4  O   UNL     1      10.356   1.365  -1.417  1.00  0.00    -0.481 OA
ATOM      5  H   UNL     1      10.210   2.051  -2.146  1.00  0.00     0.296 HD
ENDBRANCH   2   4
ENDBRANCH   1   2
BRANCH   1   6
ATOM      6  C   UNL     1       7.127  -0.611  -1.544  1.00  0.00     0.047 C 
BRANCH   6   7
ATOM      7  C   UNL     1       6.347   0.233  -0.603  1.00  0.00    -0.047 A 
ATOM      8  C   UNL     1       6.127  -0.181   0.703  1.00  0.00     0.004 A 
ATOM      9  C   UNL     1       5.798   1.449  -0.967  1.00  0.00     0.004 A 
ATOM     10  C   UNL     1       5.400   0.574   1.596  1.00  0.00     0.000 A 
ATOM     11  C   UNL     1       5.071   2.203  -0.072  1.00  0.00     0.000 A 
ATOM     12  C   UNL     1       4.855   1.785   1.222  1.00  0.00     0.000 A 
ENDBRANCH   6   7
ENDBRANCH   1   6
TORSDOF 4
ENDMDL
MODEL 5
REMARK VINA RESULT:      -6.6      1.892      2.929
REMARK SMILES O=C(O)CCc1ccccc1
REMARK SMILES IDX 4 1 2 2 1 3 3 4 5 6 6 7 7 8 11 9 8 10 10 11 9 12
REMARK H PARENT 3 5
REMARK Flexibility Score: inf
ROOT
ATOM      1  C   UNL     1       8.199  -1.599   1.134  1.00  0.00     0.127 C 
ENDROOT
BRANCH   1   2
ATOM      2  C   UNL     1       8.505  -2.796   0.330  1.00  0.00     0.303 C 
ATOM      3  O   UNL     1       9.159  -3.737   0.857  1.00  0.00    -0.252 OA
BRANCH   2   4
ATOM      4  O   UNL     1       8.093  -2.927  -1.004  1.00  0.00    -0.481 OA
ATOM      5  H   UNL     1       8.756  -2.717  -1.738  1.00  0.00     0.296 HD
ENDBRANCH   2   4
ENDBRANCH   1   2
BRANCH   1   6
ATOM      6  C   UNL     1       6.712  -1.453   1.401  1.00  0.00     0.047 C 
BRANCH   6   7
ATOM      7  C   UNL     1       6.185  -0.195   0.811  1.00  0.00    -0.047 A 
ATOM      8  C   UNL     1       5.400   0.666   1.564  1.00  0.00     0.004 A 
ATOM      9  C   UNL     1       6.433   0.179  -0.497  1.00  0.00     0.004 A 
ATOM     10  C   UNL     1       4.889   1.833   1.043  1.00  0.00     0.000 A 
ATOM     11  C   UNL     1       5.921   1.348  -1.017  1.00  0.00     0.000 A 
ATOM     12  C   UNL     1       5.141   2.196  -0.264  1.00  0.00     0.000 A 
ENDBRANCH   6   7
ENDBRANCH   1   6
TORSDOF 4
ENDMDL
