@<TRIPOS>MOLECULE
/home/cewinharhar/GITHUB/reincatalyze/data/processed/docking_pred/2023-Apr-25-2248_maxeplen10_maxtrainstep1000_exh16_gamma099_lrac3e-4_lrcr1e-3/7ac8f9624e71b352d93dccd4dc48cb56e96c53c0_ligand_2.pdbqt
 12 12 0 0 0
SMALL
GASTEIGER

@<TRIPOS>ATOM
      1  C          8.2660    0.1770   -2.1660 C.3     1  UNL1        0.1270
      2  C          9.3870    0.3700   -1.2290 C.2     1  UNL1        0.3030
      3  O          9.4810   -0.3850   -0.2230 O.2     1  UNL1       -0.2520
      4  O         10.3560    1.3650   -1.4170 O.3     1  UNL1       -0.4810
      5  H         10.2100    2.0510   -2.1460 H       1  UNL1        0.2960
      6  C          7.1270   -0.6110   -1.5440 C.3     1  UNL1        0.0470
      7  C          6.3470    0.2330   -0.6030 C.2     1  UNL1       -0.0470
      8  C          6.1270   -0.1810    0.7030 C.2     1  UNL1        0.0040
      9  C          5.7980    1.4490   -0.9670 C.2     1  UNL1        0.0040
     10  C          5.4000    0.5740    1.5960 C.2     1  UNL1        0.0000
     11  C          5.0710    2.2030   -0.0720 C.2     1  UNL1        0.0000
     12  C          4.8550    1.7850    1.2220 C.2     1  UNL1        0.0000
@<TRIPOS>BOND
     1     1     6    1
     2     1     2    1
     3     5     4    1
     4     6     7    1
     5     4     2    1
     6     2     3    2
     7     9     7    2
     8     9    11    1
     9     7     8    1
    10    11    12    2
    11     8    10    2
    12    12    10    1
