@<TRIPOS>MOLECULE
/home/cewinharhar/GITHUB/reincatalyze/data/processed/docking_pred/2023-Apr-25-2248_maxeplen10_maxtrainstep1000_exh16_gamma099_lrac3e-4_lrcr1e-3/7ac8f9624e71b352d93dccd4dc48cb56e96c53c0_ligand_2.pdbqt
 12 12 0 0 0
SMALL
GASTEIGER

@<TRIPOS>ATOM
      1  C          8.1990   -1.5990    1.1340 C.3     1  UNL1        0.1270
      2  C          8.5050   -2.7960    0.3300 C.2     1  UNL1        0.3030
      3  O          9.1590   -3.7370    0.8570 O.2     1  UNL1       -0.2520
      4  O          8.0930   -2.9270   -1.0040 O.3     1  UNL1       -0.4810
      5  H          8.7560   -2.7170   -1.7380 H       1  UNL1        0.2960
      6  C          6.7120   -1.4530    1.4010 C.3     1  UNL1        0.0470
      7  C          6.1850   -0.1950    0.8110 C.2     1  UNL1       -0.0470
      8  C          5.4000    0.6660    1.5640 C.2     1  UNL1        0.0040
      9  C          6.4330    0.1790   -0.4970 C.2     1  UNL1        0.0040
     10  C          4.8890    1.8330    1.0430 C.2     1  UNL1        0.0000
     11  C          5.9210    1.3480   -1.0170 C.2     1  UNL1        0.0000
     12  C          5.1410    2.1960   -0.2640 C.2     1  UNL1        0.0000
@<TRIPOS>BOND
     1     5     4    1
     2    11     9    1
     3    11    12    2
     4     4     2    1
     5     9     7    2
     6    12    10    1
     7     2     3    2
     8     2     1    1
     9     7     6    1
    10     7     8    1
    11    10     8    2
    12     1     6    1
