@<TRIPOS>MOLECULE
/home/cewinharhar/GITHUB/reincatalyze/data/processed/docking_pred/2023-Apr-25-2248_maxeplen10_maxtrainstep1000_exh16_gamma099_lrac3e-4_lrcr1e-3/7ac8f9624e71b352d93dccd4dc48cb56e96c53c0_ligand_2.pdbqt
 12 12 0 0 0
SMALL
GASTEIGER

@<TRIPOS>ATOM
      1  C          8.3800   -0.6440   -2.1390 C.3     1  UNL1        0.1270
      2  C          8.3870   -1.9080   -2.8960 C.2     1  UNL1        0.3030
      3  O          7.2890   -2.4160   -3.2510 O.2     1  UNL1       -0.2520
      4  O          9.5760   -2.5680   -3.2400 O.3     1  UNL1       -0.4810
      5  H         10.2780   -2.0590   -3.7610 H       1  UNL1        0.2960
      6  C          7.0120    0.0150   -2.1350 C.3     1  UNL1        0.0470
      7  C          6.4710    0.1120   -0.7540 C.2     1  UNL1       -0.0470
      8  C          6.6130   -0.9420    0.1370 C.2     1  UNL1        0.0040
      9  C          5.8000    1.2280   -0.2900 C.2     1  UNL1        0.0040
     10  C          6.1140   -0.8880    1.4180 C.2     1  UNL1        0.0000
     11  C          5.3010    1.2810    0.9940 C.2     1  UNL1        0.0000
     12  C          5.4450    0.2310    1.8720 C.2     1  UNL1        0.0000
@<TRIPOS>BOND
     1     5     4    1
     2     3     2    2
     3     4     2    1
     4     2     1    1
     5     1     6    1
     6     6     7    1
     7     7     9    2
     8     7     8    1
     9     9    11    1
    10     8    10    2
    11    11    12    2
    12    10    12    1
