@<TRIPOS>MOLECULE
/home/cewinharhar/GITHUB/reincatalyze/data/processed/docking_pred/2023-Apr-25-2248_maxeplen10_maxtrainstep1000_exh16_gamma099_lrac3e-4_lrcr1e-3/7c86502248d8ce059d377094dc2c2500eee92fd7_ligand_2.pdbqt
 12 12 0 0 0
SMALL
GASTEIGER

@<TRIPOS>ATOM
      1  C          8.4190   -0.6430   -2.1350 C.3     1  UNL1        0.1270
      2  C          8.4580   -1.9010   -2.9010 C.2     1  UNL1        0.3030
      3  O          9.5650   -2.4800   -3.0700 O.2     1  UNL1       -0.2520
      4  O          7.3040   -2.4800   -3.4480 O.3     1  UNL1       -0.4810
      5  H          6.7290   -3.0650   -2.8560 H       1  UNL1        0.2960
      6  C          7.0430   -0.0020   -2.1550 C.3     1  UNL1        0.0470
      7  C          6.4880    0.1120   -0.7810 C.2     1  UNL1       -0.0470
      8  C          6.6040   -0.9380    0.1180 C.2     1  UNL1        0.0040
      9  C          5.8290    1.2410   -0.3310 C.2     1  UNL1        0.0040
     10  C          6.0920   -0.8680    1.3930 C.2     1  UNL1        0.0000
     11  C          5.3160    1.3100    0.9460 C.2     1  UNL1        0.0000
     12  C          5.4350    0.2640    1.8320 C.2     1  UNL1        0.0000
@<TRIPOS>BOND
     1     4     2    1
     2     4     5    1
     3     3     2    2
     4     2     1    1
     5     6     1    1
     6     6     7    1
     7     7     9    2
     8     7     8    1
     9     9    11    1
    10     8    10    2
    11    11    12    2
    12    10    12    1
