@<TRIPOS>MOLECULE
/home/cewinharhar/GITHUB/reincatalyze/data/processed/docking_pred/2023-Apr-25-2248_maxeplen10_maxtrainstep1000_exh16_gamma099_lrac3e-4_lrcr1e-3/7c86502248d8ce059d377094dc2c2500eee92fd7_ligand_2.pdbqt
 12 12 0 0 0
SMALL
GASTEIGER

@<TRIPOS>ATOM
      1  C          4.9890    1.7870    0.7000 C.3     1  UNL1        0.1270
      2  C          4.4760    1.1320    1.9160 C.2     1  UNL1        0.3030
      3  O          5.1770    0.2450    2.4750 O.2     1  UNL1       -0.2520
      4  O          3.2340    1.4630    2.4760 O.3     1  UNL1       -0.4810
      5  H          2.9410    0.9850    3.3180 H       1  UNL1        0.2960
      6  C          6.5010    1.9290    0.7180 C.3     1  UNL1        0.0470
      7  C          7.1260    1.1060   -0.3490 C.2     1  UNL1       -0.0470
      8  C          8.4770    1.2310   -0.6400 C.2     1  UNL1        0.0040
      9  C          6.4130    0.1940   -1.1060 C.2     1  UNL1        0.0040
     10  C          9.0830    0.4910   -1.6290 C.2     1  UNL1        0.0000
     11  C          7.0220   -0.5460   -2.0960 C.2     1  UNL1        0.0000
     12  C          8.3620   -0.4150   -2.3790 C.2     1  UNL1        0.0000
@<TRIPOS>BOND
     1    12    11    2
     2    12    10    1
     3    11     9    1
     4    10     8    2
     5     9     7    2
     6     8     7    1
     7     7     6    1
     8     1     6    1
     9     1     2    1
    10     2     3    2
    11     2     4    1
    12     4     5    1
