@<TRIPOS>MOLECULE
/home/cewinharhar/GITHUB/reincatalyze/data/processed/docking_pred/2023-Apr-25-2248_maxeplen10_maxtrainstep1000_exh16_gamma099_lrac3e-4_lrcr1e-3/7c86502248d8ce059d377094dc2c2500eee92fd7_ligand_2.pdbqt
 12 12 0 0 0
SMALL
GASTEIGER

@<TRIPOS>ATOM
      1  C          8.3920   -0.7100   -2.0630 C.3     1  UNL1        0.1270
      2  C          8.4120   -1.9350   -2.8810 C.2     1  UNL1        0.3030
      3  O          9.5100   -2.5220   -3.0780 O.2     1  UNL1       -0.2520
      4  O          7.2490   -2.4730   -3.4500 O.3     1  UNL1       -0.4810
      5  H          6.3730   -1.9870   -3.3120 H       1  UNL1        0.2960
      6  C          7.0310   -0.0380   -2.0690 C.3     1  UNL1        0.0470
      7  C          6.4660    0.0330   -0.6960 C.2     1  UNL1       -0.0470
      8  C          5.8110    1.1740   -0.2580 C.2     1  UNL1        0.0040
      9  C          6.5660   -1.0090    0.2090 C.2     1  UNL1        0.0040
     10  C          5.2860    1.2740    1.0100 C.2     1  UNL1        0.0000
     11  C          6.0400   -0.9070    1.4790 C.2     1  UNL1        0.0000
     12  C          5.3920    0.2300    1.9060 C.2     1  UNL1        0.0000
@<TRIPOS>BOND
     1     4     5    1
     2     4     2    1
     3     3     2    2
     4     2     1    1
     5     6     1    1
     6     6     7    1
     7     7     8    2
     8     7     9    1
     9     8    10    1
    10     9    11    2
    11    10    12    2
    12    11    12    1
