@<TRIPOS>MOLECULE
/home/cewinharhar/GITHUB/reincatalyze/data/processed/docking_pred/2023-Apr-25-2248_maxeplen10_maxtrainstep1000_exh16_gamma099_lrac3e-4_lrcr1e-3/7c86502248d8ce059d377094dc2c2500eee92fd7_ligand_2.pdbqt
 12 12 0 0 0
SMALL
GASTEIGER

@<TRIPOS>ATOM
      1  C          8.2530   -1.6630    1.2040 C.3     1  UNL1        0.1270
      2  C          8.6560   -2.8820    0.4820 C.2     1  UNL1        0.3030
      3  O          9.3950   -3.7230    1.0630 O.2     1  UNL1       -0.2520
      4  O          8.2450   -3.1430   -0.8330 O.3     1  UNL1       -0.4810
      5  H          7.9320   -2.3690   -1.4040 H       1  UNL1        0.2960
      6  C          6.7500   -1.5850    1.4040 C.3     1  UNL1        0.0470
      7  C          6.2050   -0.3160    0.8550 C.2     1  UNL1       -0.0470
      8  C          6.4600    0.0540   -0.4580 C.2     1  UNL1        0.0040
      9  C          5.4370    0.5560    1.6050 C.2     1  UNL1        0.0040
     10  C          5.9790    1.2270   -0.9930 C.2     1  UNL1        0.0000
     11  C          4.9550    1.7300    1.0670 C.2     1  UNL1        0.0000
     12  C          5.2140    2.0910   -0.2360 C.2     1  UNL1        0.0000
@<TRIPOS>BOND
     1     5     4    1
     2    10     8    1
     3    10    12    2
     4     4     2    1
     5     8     7    2
     6    12    11    1
     7     2     3    2
     8     2     1    1
     9     7     6    1
    10     7     9    1
    11    11     9    2
    12     1     6    1
