@<TRIPOS>MOLECULE
/home/cewinharhar/GITHUB/reincatalyze/data/processed/docking_pred/2023-Apr-25-2248_maxeplen10_maxtrainstep1000_exh16_gamma099_lrac3e-4_lrcr1e-3/7d60c2a66717a3f4b6d307e9593656cfb0aaeeb8_ligand_2.pdbqt
 12 12 0 0 0
SMALL
GASTEIGER

@<TRIPOS>ATOM
      1  C          5.0160    1.7380    0.7090 C.3     1  UNL1        0.1270
      2  C          4.4840    1.0930    1.9220 C.2     1  UNL1        0.3030
      3  O          5.1640    0.1940    2.4860 O.2     1  UNL1       -0.2520
      4  O          3.2450    1.4470    2.4750 O.3     1  UNL1       -0.4810
      5  H          2.7150    0.7400    2.9670 H       1  UNL1        0.2960
      6  C          6.5270    1.8760    0.7480 C.3     1  UNL1        0.0470
      7  C          7.1630    1.0850   -0.3380 C.2     1  UNL1       -0.0470
      8  C          6.4210    0.1780   -1.0800 C.2     1  UNL1        0.0040
      9  C          8.5040    1.1970   -0.6590 C.2     1  UNL1        0.0040
     10  C          6.9820   -0.5770   -2.0850 C.2     1  UNL1        0.0000
     11  C          9.0640    0.4400   -1.6650 C.2     1  UNL1        0.0000
     12  C          8.3220   -0.4590   -2.3970 C.2     1  UNL1        0.0000
@<TRIPOS>BOND
     1    12    10    2
     2    12    11    1
     3    10     8    1
     4    11     9    2
     5     8     7    2
     6     9     7    1
     7     7     6    1
     8     1     6    1
     9     1     2    1
    10     2     4    1
    11     2     3    2
    12     4     5    1
