@<TRIPOS>MOLECULE
/home/cewinharhar/GITHUB/reincatalyze/data/processed/docking_pred/2023-Apr-25-2248_maxeplen10_maxtrainstep1000_exh16_gamma099_lrac3e-4_lrcr1e-3/7d60c2a66717a3f4b6d307e9593656cfb0aaeeb8_ligand_2.pdbqt
 12 12 0 0 0
SMALL
GASTEIGER

@<TRIPOS>ATOM
      1  C          8.4170   -0.6920   -2.0780 C.3     1  UNL1        0.1270
      2  C          8.4050   -1.9290   -2.8790 C.2     1  UNL1        0.3030
      3  O          7.2980   -2.4180   -3.2340 O.2     1  UNL1       -0.2520
      4  O          9.5850   -2.5830   -3.2640 O.3     1  UNL1       -0.4810
      5  H          9.7370   -2.7680   -4.2460 H       1  UNL1        0.2960
      6  C          7.0770    0.0210   -2.1030 C.3     1  UNL1        0.0470
      7  C          6.4910    0.1000   -0.7390 C.2     1  UNL1       -0.0470
      8  C          5.8080    1.2360   -0.3280 C.2     1  UNL1        0.0040
      9  C          6.5980   -0.9250    0.1830 C.2     1  UNL1        0.0040
     10  C          5.2640    1.3450    0.9310 C.2     1  UNL1        0.0000
     11  C          6.0520   -0.8140    1.4430 C.2     1  UNL1        0.0000
     12  C          5.3770    0.3160    1.8450 C.2     1  UNL1        0.0000
@<TRIPOS>BOND
     1     5     4    1
     2     4     2    1
     3     3     2    2
     4     2     1    1
     5     6     1    1
     6     6     7    1
     7     7     8    2
     8     7     9    1
     9     8    10    1
    10     9    11    2
    11    10    12    2
    12    11    12    1
