@<TRIPOS>MOLECULE
/home/cewinharhar/GITHUB/reincatalyze/data/processed/docking_pred/2023-Apr-25-2248_maxeplen10_maxtrainstep1000_exh16_gamma099_lrac3e-4_lrcr1e-3/7d60c2a66717a3f4b6d307e9593656cfb0aaeeb8_ligand_2.pdbqt
 12 12 0 0 0
SMALL
GASTEIGER

@<TRIPOS>ATOM
      1  C          8.2350    0.2400   -2.2350 C.3     1  UNL1        0.1270
      2  C          9.3540    0.3570   -1.2840 C.2     1  UNL1        0.3030
      3  O          9.4090   -0.4330   -0.3030 O.2     1  UNL1       -0.2520
      4  O         10.3640    1.3190   -1.4320 O.3     1  UNL1       -0.4810
      5  H         11.3080    1.0040   -1.6140 H       1  UNL1        0.2960
      6  C          7.0710   -0.5450   -1.6570 C.3     1  UNL1        0.0470
      7  C          6.3110    0.2730   -0.6760 C.2     1  UNL1       -0.0470
      8  C          5.7990    1.5130   -1.0340 C.2     1  UNL1        0.0040
      9  C          6.0830   -0.1380    0.6240 C.2     1  UNL1        0.0040
     10  C          5.1010    2.2980   -0.1460 C.2     1  UNL1        0.0000
     11  C          5.3830    0.6500    1.5120 C.2     1  UNL1        0.0000
     12  C          4.8800    1.8790    1.1500 C.2     1  UNL1        0.0000
@<TRIPOS>BOND
     1     1     6    1
     2     1     2    1
     3     6     7    1
     4     5     4    1
     5     4     2    1
     6     2     3    2
     7     8     7    2
     8     8    10    1
     9     7     9    1
    10    10    12    2
    11     9    11    2
    12    12    11    1
