MODEL 1
REMARK VINA RESULT:      -7.3      0.000      0.000
REMARK SMILES O=C(O)CCc1ccccc1
REMARK SMILES IDX 4 1 2 2 1 3 3 4 5 6 6 7 7 8 11 9 8 10 10 11 9 12
REMARK H PARENT 3 5
REMARK Flexibility Score: inf
ROOT
ATOM      1  C   UNL     1       8.417  -0.692  -2.078  1.00  0.00     0.127 C 
ENDROOT
BRANCH   1   2
ATOM      2  C   UNL     1       8.405  -1.929  -2.879  1.00  0.00     0.303 C 
ATOM      3  O   UNL     1       7.298  -2.418  -3.234  1.00  0.00    -0.252 OA
BRANCH   2   4
ATOM      4  O   UNL     1       9.585  -2.583  -3.264  1.00  0.00    -0.481 OA
ATOM      5  H   UNL     1       9.737  -2.768  -4.246  1.00  0.00     0.296 HD
ENDBRANCH   2   4
ENDBRANCH   1   2
BRANCH   1   6
ATOM      6  C   UNL     1       7.077   0.021  -2.103  1.00  0.00     0.047 C 
BRANCH   6   7
ATOM      7  C   UNL     1       6.491   0.100  -0.739  1.00  0.00    -0.047 A 
ATOM      8  C   UNL     1       5.808   1.236  -0.328  1.00  0.00     0.004 A 
ATOM      9  C   UNL     1       6.598  -0.925   0.183  1.00  0.00     0.004 A 
ATOM     10  C   UNL     1       5.264   1.345   0.931  1.00  0.00     0.000 A 
ATOM     11  C   UNL     1       6.052  -0.814   1.443  1.00  0.00     0.000 A 
ATOM     12  C   UNL     1       5.377   0.316   1.845  1.00  0.00     0.000 A 
ENDBRANCH   6   7
ENDBRANCH   1   6
TORSDOF 4
ENDMDL
MODEL 2
REMARK VINA RESULT:      -7.3      0.024      1.421
REMARK SMILES O=C(O)CCc1ccccc1
REMARK SMILES IDX 4 1 2 2 1 3 3 4 5 6 6 7 7 8 11 9 8 10 10 11 9 12
REMARK H PARENT 3 5
REMARK Flexibility Score: inf
ROOT
ATOM      1  C   UNL     1       8.410  -0.685  -2.073  1.00  0.00     0.127 C 
ENDROOT
BRANCH   1   2
ATOM      2  C   UNL     1       8.407  -1.922  -2.874  1.00  0.00     0.303 C 
ATOM      3  O   UNL     1       7.303  -2.419  -3.229  1.00  0.00    -0.252 OA
BRANCH   2   4
ATOM      4  O   UNL     1       9.591  -2.567  -3.259  1.00  0.00    -0.481 OA
ATOM      5  H   UNL     1       9.569  -3.179  -4.064  1.00  0.00     0.296 HD
ENDBRANCH   2   4
ENDBRANCH   1   2
BRANCH   1   6
ATOM      6  C   UNL     1       7.070   0.028  -2.113  1.00  0.00     0.047 C 
BRANCH   6   7
ATOM      7  C   UNL     1       6.487   0.144  -0.751  1.00  0.00    -0.047 A 
ATOM      8  C   UNL     1       6.605  -0.896   0.160  1.00  0.00     0.004 A 
ATOM      9  C   UNL     1       5.801   1.266  -0.323  1.00  0.00     0.004 A 
ATOM     10  C   UNL     1       6.068  -0.823   1.425  1.00  0.00     0.000 A 
ATOM     11  C   UNL     1       5.264   1.337   0.944  1.00  0.00     0.000 A 
ATOM     12  C   UNL     1       5.383   0.301   1.842  1.00  0.00     0.000 A 
ENDBRANCH   6   7
ENDBRANCH   1   6
TORSDOF 4
ENDMDL
MODEL 3
REMARK VINA RESULT:      -6.8      3.317      5.169
REMARK SMILES O=C(O)CCc1ccccc1
REMARK SMILES IDX 4 1 2 2 1 3 3 4 5 6 6 7 7 8 11 9 8 10 10 11 9 12
REMARK H PARENT 3 5
REMARK Flexibility Score: inf
ROOT
ATOM      1  C   UNL     1       5.016   1.738   0.709  1.00  0.00     0.127 C 
ENDROOT
BRANCH   1   2
ATOM      2  C   UNL     1       4.484   1.093   1.922  1.00  0.00     0.303 C 
ATOM      3  O   UNL     1       5.164   0.194   2.486  1.00  0.00    -0.252 OA
BRANCH   2   4
ATOM      4  O   UNL     1       3.245   1.447   2.475  1.00  0.00    -0.481 OA
ATOM      5  H   UNL     1       2.715   0.740   2.967  1.00  0.00     0.296 HD
ENDBRANCH   2   4
ENDBRANCH   1   2
BRANCH   1   6
ATOM      6  C   UNL     1       6.527   1.876   0.748  1.00  0.00     0.047 C 
BRANCH   6   7
ATOM      7  C   UNL     1       7.163   1.085  -0.338  1.00  0.00    -0.047 A 
ATOM      8  C   UNL     1       6.421   0.178  -1.080  1.00  0.00     0.004 A 
ATOM      9  C   UNL     1       8.504   1.197  -0.659  1.00  0.00     0.004 A 
ATOM     10  C   UNL     1       6.982  -0.577  -2.085  1.00  0.00     0.000 A 
ATOM     11  C   UNL     1       9.064   0.440  -1.665  1.00  0.00     0.000 A 
ATOM     12  C   UNL     1       8.322  -0.459  -2.397  1.00  0.00     0.000 A 
ENDBRANCH   6   7
ENDBRANCH   1   6
TORSDOF 4
ENDMDL
MODEL 4
REMARK VINA RESULT:      -6.6      1.925      2.254
REMARK SMILES O=C(O)CCc1ccccc1
REMARK SMILES IDX 4 1 2 2 1 3 3 4 5 6 6 7 7 8 11 9 8 10 10 11 9 12
REMARK H PARENT 3 5
REMARK Flexibility Score: inf
ROOT
ATOM      1  C   UNL     1       8.235   0.240  -2.235  1.00  0.00     0.127 C 
ENDROOT
BRANCH   1   2
ATOM      2  C   UNL     1       9.354   0.357  -1.284  1.00  0.00     0.303 C 
ATOM      3  O   UNL     1       9.409  -0.433  -0.303  1.00  0.00    -0.252 OA
BRANCH   2   4
ATOM      4  O   UNL     1      10.364   1.319  -1.432  1.00  0.00    -0.481 OA
ATOM      5  H   UNL     1      11.308   1.004  -1.614  1.00  0.00     0.296 HD
ENDBRANCH   2   4
ENDBRANCH   1   2
BRANCH   1   6
ATOM      6  C   UNL     1       7.071  -0.545  -1.657  1.00  0.00     0.047 C 
BRANCH   6   7
ATOM      7  C   UNL     1       6.311   0.273  -0.676  1.00  0.00    -0.047 A 
ATOM      8  C   UNL     1       5.799   1.513  -1.034  1.00  0.00     0.004 A 
ATOM      9  C   UNL     1       6.083  -0.138   0.624  1.00  0.00     0.004 A 
ATOM     10  C   UNL     1       5.101   2.298  -0.146  1.00  0.00     0.000 A 
ATOM     11  C   UNL     1       5.383   0.650   1.512  1.00  0.00     0.000 A 
ATOM     12  C   UNL     1       4.880   1.879   1.150  1.00  0.00     0.000 A 
ENDBRANCH   6   7
ENDBRANCH   1   6
TORSDOF 4
ENDMDL
MODEL 5
REMARK VINA RESULT:      -6.6      1.982      3.043
REMARK SMILES O=C(O)CCc1ccccc1
REMARK SMILES IDX 4 1 2 2 1 3 3 4 5 6 6 7 7 8 11 9 8 10 10 11 9 12
REMARK H PARENT 3 5
REMARK Flexibility Score: inf
ROOT
ATOM      1  C   UNL     1       8.221  -1.736   1.232  1.00  0.00     0.127 C 
ENDROOT
BRANCH   1   2
ATOM      2  C   UNL     1       8.623  -2.939   0.483  1.00  0.00     0.303 C 
ATOM      3  O   UNL     1       9.423  -3.755   1.017  1.00  0.00    -0.252 OA
BRANCH   2   4
ATOM      4  O   UNL     1       8.145  -3.211  -0.807  1.00  0.00    -0.481 OA
ATOM      5  H   UNL     1       7.436  -3.923  -0.920  1.00  0.00     0.296 HD
ENDBRANCH   2   4
ENDBRANCH   1   2
BRANCH   1   6
ATOM      6  C   UNL     1       6.716  -1.647   1.411  1.00  0.00     0.047 C 
BRANCH   6   7
ATOM      7  C   UNL     1       6.191  -0.364   0.874  1.00  0.00    -0.047 A 
ATOM      8  C   UNL     1       6.476   0.028  -0.426  1.00  0.00     0.004 A 
ATOM      9  C   UNL     1       5.414   0.499   1.624  1.00  0.00     0.004 A 
ATOM     10  C   UNL     1       6.014   1.214  -0.949  1.00  0.00     0.000 A 
ATOM     11  C   UNL     1       4.952   1.687   1.099  1.00  0.00     0.000 A 
ATOM     12  C   UNL     1       5.240   2.070  -0.191  1.00  0.00     0.000 A 
ENDBRANCH   6   7
ENDBRANCH   1   6
TORSDOF 4
ENDMDL
