@<TRIPOS>MOLECULE
/home/cewinharhar/GITHUB/reincatalyze/data/processed/docking_pred/2023-Apr-25-2248_maxeplen10_maxtrainstep1000_exh16_gamma099_lrac3e-4_lrcr1e-3/7d60c2a66717a3f4b6d307e9593656cfb0aaeeb8_ligand_2.pdbqt
 12 12 0 0 0
SMALL
GASTEIGER

@<TRIPOS>ATOM
      1  C          8.2210   -1.7360    1.2320 C.3     1  UNL1        0.1270
      2  C          8.6230   -2.9390    0.4830 C.2     1  UNL1        0.3030
      3  O          9.4230   -3.7550    1.0170 O.2     1  UNL1       -0.2520
      4  O          8.1450   -3.2110   -0.8070 O.3     1  UNL1       -0.4810
      5  H          7.4360   -3.9230   -0.9200 H       1  UNL1        0.2960
      6  C          6.7160   -1.6470    1.4110 C.3     1  UNL1        0.0470
      7  C          6.1910   -0.3640    0.8740 C.2     1  UNL1       -0.0470
      8  C          6.4760    0.0280   -0.4260 C.2     1  UNL1        0.0040
      9  C          5.4140    0.4990    1.6240 C.2     1  UNL1        0.0040
     10  C          6.0140    1.2140   -0.9490 C.2     1  UNL1        0.0000
     11  C          4.9520    1.6870    1.0990 C.2     1  UNL1        0.0000
     12  C          5.2400    2.0700   -0.1910 C.2     1  UNL1        0.0000
@<TRIPOS>BOND
     1    10     8    1
     2    10    12    2
     3     5     4    1
     4     4     2    1
     5     8     7    2
     6    12    11    1
     7     2     3    2
     8     2     1    1
     9     7     6    1
    10     7     9    1
    11    11     9    2
    12     1     6    1
