@<TRIPOS>MOLECULE
/home/cewinharhar/GITHUB/reincatalyze/data/processed/docking_pred/2023-Apr-25-2248_maxeplen10_maxtrainstep1000_exh16_gamma099_lrac3e-4_lrcr1e-3/7d60c2a66717a3f4b6d307e9593656cfb0aaeeb8_ligand_2.pdbqt
 12 12 0 0 0
SMALL
GASTEIGER

@<TRIPOS>ATOM
      1  C          8.4100   -0.6850   -2.0730 C.3     1  UNL1        0.1270
      2  C          8.4070   -1.9220   -2.8740 C.2     1  UNL1        0.3030
      3  O          7.3030   -2.4190   -3.2290 O.2     1  UNL1       -0.2520
      4  O          9.5910   -2.5670   -3.2590 O.3     1  UNL1       -0.4810
      5  H          9.5690   -3.1790   -4.0640 H       1  UNL1        0.2960
      6  C          7.0700    0.0280   -2.1130 C.3     1  UNL1        0.0470
      7  C          6.4870    0.1440   -0.7510 C.2     1  UNL1       -0.0470
      8  C          6.6050   -0.8960    0.1600 C.2     1  UNL1        0.0040
      9  C          5.8010    1.2660   -0.3230 C.2     1  UNL1        0.0040
     10  C          6.0680   -0.8230    1.4250 C.2     1  UNL1        0.0000
     11  C          5.2640    1.3370    0.9440 C.2     1  UNL1        0.0000
     12  C          5.3830    0.3010    1.8420 C.2     1  UNL1        0.0000
@<TRIPOS>BOND
     1     5     4    1
     2     4     2    1
     3     3     2    2
     4     2     1    1
     5     6     1    1
     6     6     7    1
     7     7     9    2
     8     7     8    1
     9     9    11    1
    10     8    10    2
    11    11    12    2
    12    10    12    1
