@<TRIPOS>MOLECULE
/home/cewinharhar/GITHUB/reincatalyze/data/processed/docking_pred/2023-Apr-25-2248_maxeplen10_maxtrainstep1000_exh16_gamma099_lrac3e-4_lrcr1e-3/7e2b2812a39c1bf8d23d6aab3a18bb39f1acac0e_ligand_2.pdbqt
 12 12 0 0 0
SMALL
GASTEIGER

@<TRIPOS>ATOM
      1  C          7.2550   -1.2120   -2.0850 C.3     1  UNL1        0.1270
      2  C          8.6990   -1.2060   -2.3780 C.2     1  UNL1        0.3030
      3  O          9.2110   -2.2030   -2.9560 O.2     1  UNL1       -0.2520
      4  O          9.5270   -0.1260   -2.0370 O.3     1  UNL1       -0.4810
      5  H          9.9050    0.4470   -2.7800 H       1  UNL1        0.2960
      6  C          6.9730   -1.2620   -0.5940 C.3     1  UNL1        0.0470
      7  C          6.2540   -0.0410   -0.1460 C.2     1  UNL1       -0.0470
      8  C          6.0570    1.0230   -1.0150 C.2     1  UNL1        0.0040
      9  C          5.7590    0.1080    1.1370 C.2     1  UNL1        0.0040
     10  C          5.4050    2.1710   -0.6270 C.2     1  UNL1        0.0000
     11  C          5.1060    1.2590    1.5230 C.2     1  UNL1        0.0000
     12  C          4.9150    2.3100    0.6560 C.2     1  UNL1        0.0000
@<TRIPOS>BOND
     1     3     2    2
     2     5     4    1
     3     2     1    1
     4     2     4    1
     5     1     6    1
     6     8    10    1
     7     8     7    2
     8    10    12    2
     9     6     7    1
    10     7     9    1
    11    12    11    1
    12     9    11    2
