@<TRIPOS>MOLECULE
/home/cewinharhar/GITHUB/reincatalyze/data/processed/docking_pred/2023-Apr-25-2248_maxeplen10_maxtrainstep1000_exh16_gamma099_lrac3e-4_lrcr1e-3/7e2b2812a39c1bf8d23d6aab3a18bb39f1acac0e_ligand_2.pdbqt
 12 12 0 0 0
SMALL
GASTEIGER

@<TRIPOS>ATOM
      1  C          8.4400   -0.6690   -2.0840 C.3     1  UNL1        0.1270
      2  C          8.4160   -1.9130   -2.8730 C.2     1  UNL1        0.3030
      3  O          7.3040   -2.4070   -3.2050 O.2     1  UNL1       -0.2520
      4  O          9.5900   -2.5690   -3.2700 O.3     1  UNL1       -0.4810
      5  H          9.7110   -3.5400   -3.0160 H       1  UNL1        0.2960
      6  C          7.1090    0.0610   -2.1240 C.3     1  UNL1        0.0470
      7  C          6.5080    0.1490   -0.7680 C.2     1  UNL1       -0.0470
      8  C          5.8110    1.2820   -0.3740 C.2     1  UNL1        0.0040
      9  C          6.6140   -0.8670    0.1650 C.2     1  UNL1        0.0040
     10  C          5.2530    1.3980    0.8780 C.2     1  UNL1        0.0000
     11  C          6.0540   -0.7490    1.4190 C.2     1  UNL1        0.0000
     12  C          5.3650    0.3790    1.8020 C.2     1  UNL1        0.0000
@<TRIPOS>BOND
     1     4     5    1
     2     4     2    1
     3     3     2    2
     4     2     1    1
     5     6     1    1
     6     6     7    1
     7     7     8    2
     8     7     9    1
     9     8    10    1
    10     9    11    2
    11    10    12    2
    12    11    12    1
