@<TRIPOS>MOLECULE
/home/cewinharhar/GITHUB/reincatalyze/data/processed/docking_pred/2023-Apr-25-2248_maxeplen10_maxtrainstep1000_exh16_gamma099_lrac3e-4_lrcr1e-3/7e2b2812a39c1bf8d23d6aab3a18bb39f1acac0e_ligand_2.pdbqt
 12 12 0 0 0
SMALL
GASTEIGER

@<TRIPOS>ATOM
      1  C          8.2600   -1.7110    1.2140 C.3     1  UNL1        0.1270
      2  C          8.6310   -2.9220    0.4610 C.2     1  UNL1        0.3030
      3  O          9.3970   -3.7670    0.9980 O.2     1  UNL1       -0.2520
      4  O          8.1580   -3.1700   -0.8360 O.3     1  UNL1       -0.4810
      5  H          8.7630   -2.9600   -1.6190 H       1  UNL1        0.2960
      6  C          6.7630   -1.6160    1.4490 C.3     1  UNL1        0.0470
      7  C          6.2150   -0.3530    0.8900 C.2     1  UNL1       -0.0470
      8  C          6.4780    0.0130   -0.4220 C.2     1  UNL1        0.0040
      9  C          5.4360    0.5170    1.6310 C.2     1  UNL1        0.0040
     10  C          5.9940    1.1810   -0.9660 C.2     1  UNL1        0.0000
     11  C          4.9520    1.6870    1.0850 C.2     1  UNL1        0.0000
     12  C          5.2190    2.0440   -0.2170 C.2     1  UNL1        0.0000
@<TRIPOS>BOND
     1     5     4    1
     2    10     8    1
     3    10    12    2
     4     4     2    1
     5     8     7    2
     6    12    11    1
     7     2     3    2
     8     2     1    1
     9     7     6    1
    10     7     9    1
    11    11     9    2
    12     1     6    1
