@<TRIPOS>MOLECULE
/home/cewinharhar/GITHUB/reincatalyze/data/processed/docking_pred/2023-Apr-25-2248_maxeplen10_maxtrainstep1000_exh16_gamma099_lrac3e-4_lrcr1e-3/7e2b2812a39c1bf8d23d6aab3a18bb39f1acac0e_ligand_2.pdbqt
 12 12 0 0 0
SMALL
GASTEIGER

@<TRIPOS>ATOM
      1  C          8.3780   -0.7020   -2.0630 C.3     1  UNL1        0.1270
      2  C          8.4120   -1.9260   -2.8830 C.2     1  UNL1        0.3030
      3  O          9.5170   -2.5000   -3.0800 O.2     1  UNL1       -0.2520
      4  O          7.2550   -2.4780   -3.4520 O.3     1  UNL1       -0.4810
      5  H          6.6990   -3.1140   -2.8960 H       1  UNL1        0.2960
      6  C          7.0120   -0.0400   -2.0770 C.3     1  UNL1        0.0470
      7  C          6.4600    0.0730   -0.7020 C.2     1  UNL1       -0.0470
      8  C          6.5700   -0.9810    0.1930 C.2     1  UNL1        0.0040
      9  C          5.8090    1.2050   -0.2470 C.2     1  UNL1        0.0040
     10  C          6.0610   -0.9120    1.4700 C.2     1  UNL1        0.0000
     11  C          5.2990    1.2730    1.0310 C.2     1  UNL1        0.0000
     12  C          5.4120    0.2220    1.9140 C.2     1  UNL1        0.0000
@<TRIPOS>BOND
     1     4     5    1
     2     4     2    1
     3     3     2    2
     4     2     1    1
     5     6     1    1
     6     6     7    1
     7     7     9    2
     8     7     8    1
     9     9    11    1
    10     8    10    2
    11    11    12    2
    12    10    12    1
