@<TRIPOS>MOLECULE
/home/cewinharhar/GITHUB/reincatalyze/data/processed/docking_pred/2023-Apr-25-2248_maxeplen10_maxtrainstep1000_exh16_gamma099_lrac3e-4_lrcr1e-3/7e2b2812a39c1bf8d23d6aab3a18bb39f1acac0e_ligand_2.pdbqt
 12 12 0 0 0
SMALL
GASTEIGER

@<TRIPOS>ATOM
      1  C          5.0180    1.7820    0.7030 C.3     1  UNL1        0.1270
      2  C          4.4940    1.1200    1.9110 C.2     1  UNL1        0.3030
      3  O          5.1850    0.2230    2.4670 O.2     1  UNL1       -0.2520
      4  O          3.2500    1.4530    2.4660 O.3     1  UNL1       -0.4810
      5  H          2.8200    2.3280    2.1980 H       1  UNL1        0.2960
      6  C          6.5300    1.9170    0.7340 C.3     1  UNL1        0.0470
      7  C          7.1590    1.1140   -0.3470 C.2     1  UNL1       -0.0470
      8  C          6.4050    0.2190   -1.0930 C.2     1  UNL1        0.0040
      9  C          8.5030    1.2030   -0.6600 C.2     1  UNL1        0.0040
     10  C          6.9600   -0.5460   -2.0940 C.2     1  UNL1        0.0000
     11  C          9.0570    0.4350   -1.6620 C.2     1  UNL1        0.0000
     12  C          8.3030   -0.4520   -2.3970 C.2     1  UNL1        0.0000
@<TRIPOS>BOND
     1    12    10    2
     2    12    11    1
     3    10     8    1
     4    11     9    2
     5     8     7    2
     6     9     7    1
     7     7     6    1
     8     1     6    1
     9     1     2    1
    10     2     4    1
    11     2     3    2
    12     5     4    1
