MODEL 1
REMARK VINA RESULT:      -7.3      0.000      0.000
REMARK SMILES O=C(O)CCc1ccccc1
REMARK SMILES IDX 4 1 2 2 1 3 3 4 5 6 6 7 7 8 11 9 8 10 10 11 9 12
REMARK H PARENT 3 5
REMARK Flexibility Score: inf
ROOT
ATOM      1  C   UNL     1       8.461  -0.640  -2.145  1.00  0.00     0.127 C 
ENDROOT
BRANCH   1   2
ATOM      2  C   UNL     1       8.465  -1.901  -2.908  1.00  0.00     0.303 C 
ATOM      3  O   UNL     1       9.561  -2.495  -3.102  1.00  0.00    -0.252 OA
BRANCH   2   4
ATOM      4  O   UNL     1       7.291  -2.465  -3.427  1.00  0.00    -0.481 OA
ATOM      5  H   UNL     1       6.941  -3.318  -3.012  1.00  0.00     0.296 HD
ENDBRANCH   2   4
ENDBRANCH   1   2
BRANCH   1   6
ATOM      6  C   UNL     1       7.097   0.027  -2.147  1.00  0.00     0.047 C 
BRANCH   6   7
ATOM      7  C   UNL     1       6.535   0.095  -0.773  1.00  0.00    -0.047 A 
ATOM      8  C   UNL     1       6.653  -0.982   0.094  1.00  0.00     0.004 A 
ATOM      9  C   UNL     1       5.867   1.207  -0.292  1.00  0.00     0.004 A 
ATOM     10  C   UNL     1       6.134  -0.954   1.368  1.00  0.00     0.000 A 
ATOM     11  C   UNL     1       5.348   1.233   0.985  1.00  0.00     0.000 A 
ATOM     12  C   UNL     1       5.468   0.160   1.839  1.00  0.00     0.000 A 
ENDBRANCH   6   7
ENDBRANCH   1   6
TORSDOF 4
ENDMDL
MODEL 2
REMARK VINA RESULT:      -7.3      0.128      1.725
REMARK SMILES O=C(O)CCc1ccccc1
REMARK SMILES IDX 4 1 2 2 1 3 3 4 5 6 6 7 7 8 11 9 8 10 10 11 9 12
REMARK H PARENT 3 5
REMARK Flexibility Score: inf
ROOT
ATOM      1  C   UNL     1       8.399  -0.678  -2.099  1.00  0.00     0.127 C 
ENDROOT
BRANCH   1   2
ATOM      2  C   UNL     1       8.398  -1.924  -2.886  1.00  0.00     0.303 C 
ATOM      3  O   UNL     1       7.297  -2.418  -3.249  1.00  0.00    -0.252 OA
BRANCH   2   4
ATOM      4  O   UNL     1       9.584  -2.580  -3.248  1.00  0.00    -0.481 OA
ATOM      5  H   UNL     1       9.788  -3.476  -2.826  1.00  0.00     0.296 HD
ENDBRANCH   2   4
ENDBRANCH   1   2
BRANCH   1   6
ATOM      6  C   UNL     1       7.046   0.010  -2.112  1.00  0.00     0.047 C 
BRANCH   6   7
ATOM      7  C   UNL     1       6.476   0.091  -0.742  1.00  0.00    -0.047 A 
ATOM      8  C   UNL     1       5.801   1.228  -0.322  1.00  0.00     0.004 A 
ATOM      9  C   UNL     1       6.592  -0.934   0.179  1.00  0.00     0.004 A 
ATOM     10  C   UNL     1       5.272   1.338   0.943  1.00  0.00     0.000 A 
ATOM     11  C   UNL     1       6.062  -0.822   1.446  1.00  0.00     0.000 A 
ATOM     12  C   UNL     1       5.394   0.310   1.855  1.00  0.00     0.000 A 
ENDBRANCH   6   7
ENDBRANCH   1   6
TORSDOF 4
ENDMDL
MODEL 3
REMARK VINA RESULT:      -6.8      3.386      5.088
REMARK SMILES O=C(O)CCc1ccccc1
REMARK SMILES IDX 4 1 2 2 1 3 3 4 5 6 6 7 7 8 11 9 8 10 10 11 9 12
REMARK H PARENT 3 5
REMARK Flexibility Score: inf
ROOT
ATOM      1  C   UNL     1       5.001   1.779   0.714  1.00  0.00     0.127 C 
ENDROOT
BRANCH   1   2
ATOM      2  C   UNL     1       4.484   1.113   1.922  1.00  0.00     0.303 C 
ATOM      3  O   UNL     1       5.182   0.220   2.475  1.00  0.00    -0.252 OA
BRANCH   2   4
ATOM      4  O   UNL     1       3.240   1.440   2.481  1.00  0.00    -0.481 OA
ATOM      5  H   UNL     1       2.420   0.944   2.158  1.00  0.00     0.296 HD
ENDBRANCH   2   4
ENDBRANCH   1   2
BRANCH   1   6
ATOM      6  C   UNL     1       6.514   1.907   0.732  1.00  0.00     0.047 C 
BRANCH   6   7
ATOM      7  C   UNL     1       7.131   1.086  -0.343  1.00  0.00    -0.047 A 
ATOM      8  C   UNL     1       8.474   1.231  -0.661  1.00  0.00     0.004 A 
ATOM      9  C   UNL     1       6.417   0.158  -1.078  1.00  0.00     0.004 A 
ATOM     10  C   UNL     1       9.072   0.494  -1.658  1.00  0.00     0.000 A 
ATOM     11  C   UNL     1       7.018  -0.580  -2.076  1.00  0.00     0.000 A 
ATOM     12  C   UNL     1       8.350  -0.430  -2.387  1.00  0.00     0.000 A 
ENDBRANCH   6   7
ENDBRANCH   1   6
TORSDOF 4
ENDMDL
MODEL 4
REMARK VINA RESULT:      -6.6      3.818      4.942
REMARK SMILES O=C(O)CCc1ccccc1
REMARK SMILES IDX 4 1 2 2 1 3 3 4 5 6 6 7 7 8 11 9 8 10 10 11 9 12
REMARK H PARENT 3 5
REMARK Flexibility Score: inf
ROOT
ATOM      1  C   UNL     1       5.526   2.965  -0.001  1.00  0.00     0.127 C 
ENDROOT
BRANCH   1   2
ATOM      2  C   UNL     1       6.294   3.946   0.787  1.00  0.00     0.303 C 
ATOM      3  O   UNL     1       7.029   4.775   0.184  1.00  0.00    -0.252 OA
BRANCH   2   4
ATOM      4  O   UNL     1       6.236   3.991   2.187  1.00  0.00    -0.481 OA
ATOM      5  H   UNL     1       5.591   3.375   2.664  1.00  0.00     0.296 HD
ENDBRANCH   2   4
ENDBRANCH   1   2
BRANCH   1   6
ATOM      6  C   UNL     1       4.872   1.912   0.876  1.00  0.00     0.047 C 
BRANCH   6   7
ATOM      7  C   UNL     1       5.696   0.677   0.931  1.00  0.00    -0.047 A 
ATOM      8  C   UNL     1       5.730  -0.101   2.079  1.00  0.00     0.004 A 
ATOM      9  C   UNL     1       6.470   0.245  -0.132  1.00  0.00     0.004 A 
ATOM     10  C   UNL     1       6.491  -1.244   2.165  1.00  0.00     0.000 A 
ATOM     11  C   UNL     1       7.232  -0.900  -0.044  1.00  0.00     0.000 A 
ATOM     12  C   UNL     1       7.261  -1.666   1.099  1.00  0.00     0.000 A 
ENDBRANCH   6   7
ENDBRANCH   1   6
TORSDOF 4
ENDMDL
MODEL 5
REMARK VINA RESULT:      -6.6      1.952      2.343
REMARK SMILES O=C(O)CCc1ccccc1
REMARK SMILES IDX 4 1 2 2 1 3 3 4 5 6 6 7 7 8 11 9 8 10 10 11 9 12
REMARK H PARENT 3 5
REMARK Flexibility Score: inf
ROOT
ATOM      1  C   UNL     1       8.264   0.152  -2.149  1.00  0.00     0.127 C 
ENDROOT
BRANCH   1   2
ATOM      2  C   UNL     1       9.384   0.346  -1.212  1.00  0.00     0.303 C 
ATOM      3  O   UNL     1       9.471  -0.399  -0.198  1.00  0.00    -0.252 OA
BRANCH   2   4
ATOM      4  O   UNL     1      10.362   1.331  -1.409  1.00  0.00    -0.481 OA
ATOM      5  H   UNL     1      10.217   2.245  -1.000  1.00  0.00     0.296 HD
ENDBRANCH   2   4
ENDBRANCH   1   2
BRANCH   1   6
ATOM      6  C   UNL     1       7.128  -0.643  -1.528  1.00  0.00     0.047 C 
BRANCH   6   7
ATOM      7  C   UNL     1       6.357   0.190  -0.569  1.00  0.00    -0.047 A 
ATOM      8  C   UNL     1       6.120  -0.255   0.724  1.00  0.00     0.004 A 
ATOM      9  C   UNL     1       5.833   1.426  -0.903  1.00  0.00     0.004 A 
ATOM     10  C   UNL     1       5.401   0.488   1.632  1.00  0.00     0.000 A 
ATOM     11  C   UNL     1       5.114   2.169   0.008  1.00  0.00     0.000 A 
ATOM     12  C   UNL     1       4.882   1.719   1.288  1.00  0.00     0.000 A 
ENDBRANCH   6   7
ENDBRANCH   1   6
TORSDOF 4
ENDMDL
