@<TRIPOS>MOLECULE
/home/cewinharhar/GITHUB/reincatalyze/data/processed/docking_pred/2023-Apr-25-2248_maxeplen10_maxtrainstep1000_exh16_gamma099_lrac3e-4_lrcr1e-3/80b3dd8cd2b2e3944ffcf13b099740dfc166ef97_ligand_2.pdbqt
 12 12 0 0 0
SMALL
GASTEIGER

@<TRIPOS>ATOM
      1  C          5.5260    2.9650   -0.0010 C.3     1  UNL1        0.1270
      2  C          6.2940    3.9460    0.7870 C.2     1  UNL1        0.3030
      3  O          7.0290    4.7750    0.1840 O.2     1  UNL1       -0.2520
      4  O          6.2360    3.9910    2.1870 O.3     1  UNL1       -0.4810
      5  H          5.5910    3.3750    2.6640 H       1  UNL1        0.2960
      6  C          4.8720    1.9120    0.8760 C.3     1  UNL1        0.0470
      7  C          5.6960    0.6770    0.9310 C.2     1  UNL1       -0.0470
      8  C          5.7300   -0.1010    2.0790 C.2     1  UNL1        0.0040
      9  C          6.4700    0.2450   -0.1320 C.2     1  UNL1        0.0040
     10  C          6.4910   -1.2440    2.1650 C.2     1  UNL1        0.0000
     11  C          7.2320   -0.9000   -0.0440 C.2     1  UNL1        0.0000
     12  C          7.2610   -1.6660    1.0990 C.2     1  UNL1        0.0000
@<TRIPOS>BOND
     1     9    11    1
     2     9     7    2
     3    11    12    2
     4     1     2    1
     5     1     6    1
     6     3     2    2
     7     2     4    1
     8     6     7    1
     9     7     8    1
    10    12    10    1
    11     8    10    2
    12     4     5    1
