@<TRIPOS>MOLECULE
/home/cewinharhar/GITHUB/reincatalyze/data/processed/docking_pred/2023-Apr-25-2248_maxeplen10_maxtrainstep1000_exh16_gamma099_lrac3e-4_lrcr1e-3/80b3dd8cd2b2e3944ffcf13b099740dfc166ef97_ligand_2.pdbqt
 12 12 0 0 0
SMALL
GASTEIGER

@<TRIPOS>ATOM
      1  C          8.3990   -0.6780   -2.0990 C.3     1  UNL1        0.1270
      2  C          8.3980   -1.9240   -2.8860 C.2     1  UNL1        0.3030
      3  O          7.2970   -2.4180   -3.2490 O.2     1  UNL1       -0.2520
      4  O          9.5840   -2.5800   -3.2480 O.3     1  UNL1       -0.4810
      5  H          9.7880   -3.4760   -2.8260 H       1  UNL1        0.2960
      6  C          7.0460    0.0100   -2.1120 C.3     1  UNL1        0.0470
      7  C          6.4760    0.0910   -0.7420 C.2     1  UNL1       -0.0470
      8  C          5.8010    1.2280   -0.3220 C.2     1  UNL1        0.0040
      9  C          6.5920   -0.9340    0.1790 C.2     1  UNL1        0.0040
     10  C          5.2720    1.3380    0.9430 C.2     1  UNL1        0.0000
     11  C          6.0620   -0.8220    1.4460 C.2     1  UNL1        0.0000
     12  C          5.3940    0.3100    1.8550 C.2     1  UNL1        0.0000
@<TRIPOS>BOND
     1     3     2    2
     2     4     2    1
     3     4     5    1
     4     2     1    1
     5     6     1    1
     6     6     7    1
     7     7     8    2
     8     7     9    1
     9     8    10    1
    10     9    11    2
    11    10    12    2
    12    11    12    1
