@<TRIPOS>MOLECULE
/home/cewinharhar/GITHUB/reincatalyze/data/processed/docking_pred/2023-Apr-25-2248_maxeplen10_maxtrainstep1000_exh16_gamma099_lrac3e-4_lrcr1e-3/80b3dd8cd2b2e3944ffcf13b099740dfc166ef97_ligand_2.pdbqt
 12 12 0 0 0
SMALL
GASTEIGER

@<TRIPOS>ATOM
      1  C          5.0010    1.7790    0.7140 C.3     1  UNL1        0.1270
      2  C          4.4840    1.1130    1.9220 C.2     1  UNL1        0.3030
      3  O          5.1820    0.2200    2.4750 O.2     1  UNL1       -0.2520
      4  O          3.2400    1.4400    2.4810 O.3     1  UNL1       -0.4810
      5  H          2.4200    0.9440    2.1580 H       1  UNL1        0.2960
      6  C          6.5140    1.9070    0.7320 C.3     1  UNL1        0.0470
      7  C          7.1310    1.0860   -0.3430 C.2     1  UNL1       -0.0470
      8  C          8.4740    1.2310   -0.6610 C.2     1  UNL1        0.0040
      9  C          6.4170    0.1580   -1.0780 C.2     1  UNL1        0.0040
     10  C          9.0720    0.4940   -1.6580 C.2     1  UNL1        0.0000
     11  C          7.0180   -0.5800   -2.0760 C.2     1  UNL1        0.0000
     12  C          8.3500   -0.4300   -2.3870 C.2     1  UNL1        0.0000
@<TRIPOS>BOND
     1    12    11    2
     2    12    10    1
     3    11     9    1
     4    10     8    2
     5     9     7    2
     6     8     7    1
     7     7     6    1
     8     1     6    1
     9     1     2    1
    10     2     3    2
    11     2     4    1
    12     5     4    1
