@<TRIPOS>MOLECULE
/home/cewinharhar/GITHUB/reincatalyze/data/processed/docking_pred/2023-Apr-25-2248_maxeplen10_maxtrainstep1000_exh16_gamma099_lrac3e-4_lrcr1e-3/80b3dd8cd2b2e3944ffcf13b099740dfc166ef97_ligand_2.pdbqt
 12 12 0 0 0
SMALL
GASTEIGER

@<TRIPOS>ATOM
      1  C          8.4610   -0.6400   -2.1450 C.3     1  UNL1        0.1270
      2  C          8.4650   -1.9010   -2.9080 C.2     1  UNL1        0.3030
      3  O          9.5610   -2.4950   -3.1020 O.2     1  UNL1       -0.2520
      4  O          7.2910   -2.4650   -3.4270 O.3     1  UNL1       -0.4810
      5  H          6.9410   -3.3180   -3.0120 H       1  UNL1        0.2960
      6  C          7.0970    0.0270   -2.1470 C.3     1  UNL1        0.0470
      7  C          6.5350    0.0950   -0.7730 C.2     1  UNL1       -0.0470
      8  C          6.6530   -0.9820    0.0940 C.2     1  UNL1        0.0040
      9  C          5.8670    1.2070   -0.2920 C.2     1  UNL1        0.0040
     10  C          6.1340   -0.9540    1.3680 C.2     1  UNL1        0.0000
     11  C          5.3480    1.2330    0.9850 C.2     1  UNL1        0.0000
     12  C          5.4680    0.1600    1.8390 C.2     1  UNL1        0.0000
@<TRIPOS>BOND
     1     4     5    1
     2     4     2    1
     3     3     2    2
     4     2     1    1
     5     6     1    1
     6     6     7    1
     7     7     9    2
     8     7     8    1
     9     9    11    1
    10     8    10    2
    11    11    12    2
    12    10    12    1
