@<TRIPOS>MOLECULE
/home/cewinharhar/GITHUB/reincatalyze/data/processed/docking_pred/2023-Apr-25-2248_maxeplen10_maxtrainstep1000_exh16_gamma099_lrac3e-4_lrcr1e-3/80b3dd8cd2b2e3944ffcf13b099740dfc166ef97_ligand_2.pdbqt
 12 12 0 0 0
SMALL
GASTEIGER

@<TRIPOS>ATOM
      1  C          8.2640    0.1520   -2.1490 C.3     1  UNL1        0.1270
      2  C          9.3840    0.3460   -1.2120 C.2     1  UNL1        0.3030
      3  O          9.4710   -0.3990   -0.1980 O.2     1  UNL1       -0.2520
      4  O         10.3620    1.3310   -1.4090 O.3     1  UNL1       -0.4810
      5  H         10.2170    2.2450   -1.0000 H       1  UNL1        0.2960
      6  C          7.1280   -0.6430   -1.5280 C.3     1  UNL1        0.0470
      7  C          6.3570    0.1900   -0.5690 C.2     1  UNL1       -0.0470
      8  C          6.1200   -0.2550    0.7240 C.2     1  UNL1        0.0040
      9  C          5.8330    1.4260   -0.9030 C.2     1  UNL1        0.0040
     10  C          5.4010    0.4880    1.6320 C.2     1  UNL1        0.0000
     11  C          5.1140    2.1690    0.0080 C.2     1  UNL1        0.0000
     12  C          4.8820    1.7190    1.2880 C.2     1  UNL1        0.0000
@<TRIPOS>BOND
     1     1     6    1
     2     1     2    1
     3     6     7    1
     4     4     2    1
     5     4     5    1
     6     2     3    2
     7     9     7    2
     8     9    11    1
     9     7     8    1
    10    11    12    2
    11     8    10    2
    12    12    10    1
