@<TRIPOS>MOLECULE
/home/cewinharhar/GITHUB/reincatalyze/data/processed/docking_pred/2023-Apr-25-2248_maxeplen10_maxtrainstep1000_exh16_gamma099_lrac3e-4_lrcr1e-3/80c9945afd0f5f9f0270d56cce32b054e5c09707_ligand_2.pdbqt
 12 12 0 0 0
SMALL
GASTEIGER

@<TRIPOS>ATOM
      1  C          8.4160   -0.6200   -2.1650 C.3     1  UNL1        0.1270
      2  C          8.4570   -1.8960   -2.9020 C.2     1  UNL1        0.3030
      3  O          9.5690   -2.4630   -3.0830 O.2     1  UNL1       -0.2520
      4  O          7.3000   -2.5040   -3.4090 O.3     1  UNL1       -0.4810
      5  H          6.4030   -2.2240   -3.0350 H       1  UNL1        0.2960
      6  C          7.0270   -0.0070   -2.1550 C.3     1  UNL1        0.0470
      7  C          6.4840    0.0580   -0.7740 C.2     1  UNL1       -0.0470
      8  C          5.8280    1.1950   -0.3240 C.2     1  UNL1        0.0040
      9  C          6.6060   -0.9830    0.1280 C.2     1  UNL1        0.0040
     10  C          5.3230    1.2900    0.9520 C.2     1  UNL1        0.0000
     11  C          6.0990   -0.8860    1.4070 C.2     1  UNL1        0.0000
     12  C          5.4510    0.2450    1.8460 C.2     1  UNL1        0.0000
@<TRIPOS>BOND
     1     4     5    1
     2     4     2    1
     3     3     2    2
     4     2     1    1
     5     1     6    1
     6     6     7    1
     7     7     8    2
     8     7     9    1
     9     8    10    1
    10     9    11    2
    11    10    12    2
    12    11    12    1
