@<TRIPOS>MOLECULE
/home/cewinharhar/GITHUB/reincatalyze/data/processed/docking_pred/2023-Apr-25-2248_maxeplen10_maxtrainstep1000_exh16_gamma099_lrac3e-4_lrcr1e-3/80c9945afd0f5f9f0270d56cce32b054e5c09707_ligand_2.pdbqt
 12 12 0 0 0
SMALL
GASTEIGER

@<TRIPOS>ATOM
      1  C          8.2440   -1.6600    1.0620 C.3     1  UNL1        0.1270
      2  C          8.5410   -2.8780    0.2880 C.2     1  UNL1        0.3030
      3  O          9.1800   -3.8140    0.8400 O.2     1  UNL1       -0.2520
      4  O          8.1340   -3.0350   -1.0450 O.3     1  UNL1       -0.4810
      5  H          7.2500   -3.4890   -1.2310 H       1  UNL1        0.2960
      6  C          6.7690   -1.5400    1.4020 C.3     1  UNL1        0.0470
      7  C          6.1990   -0.2790    0.8620 C.2     1  UNL1       -0.0470
      8  C          6.4510    0.1090   -0.4470 C.2     1  UNL1        0.0040
      9  C          5.4100    0.5690    1.6170 C.2     1  UNL1        0.0040
     10  C          5.9460    1.2760   -0.9730 C.2     1  UNL1        0.0000
     11  C          4.9050    1.7380    1.0880 C.2     1  UNL1        0.0000
     12  C          5.1600    2.1160   -0.2100 C.2     1  UNL1        0.0000
@<TRIPOS>BOND
     1     5     4    1
     2     4     2    1
     3    10     8    1
     4    10    12    2
     5     8     7    2
     6    12    11    1
     7     2     3    2
     8     2     1    1
     9     7     6    1
    10     7     9    1
    11     1     6    1
    12    11     9    2
