@<TRIPOS>MOLECULE
/home/cewinharhar/GITHUB/reincatalyze/data/processed/docking_pred/2023-Apr-25-2248_maxeplen10_maxtrainstep1000_exh16_gamma099_lrac3e-4_lrcr1e-3/80c9945afd0f5f9f0270d56cce32b054e5c09707_ligand_2.pdbqt
 12 12 0 0 0
SMALL
GASTEIGER

@<TRIPOS>ATOM
      1  C          8.2130    0.2260   -2.1430 C.3     1  UNL1        0.1270
      2  C          9.3720    0.3450   -1.2410 C.2     1  UNL1        0.3030
      3  O          9.4450   -0.4120   -0.2350 O.2     1  UNL1       -0.2520
      4  O         10.4000    1.2730   -1.4620 O.3     1  UNL1       -0.4810
      5  H         10.2440    2.0160   -2.1300 H       1  UNL1        0.2960
      6  C          7.1090   -0.6310   -1.5490 C.3     1  UNL1        0.0470
      7  C          6.3410    0.1240   -0.5250 C.2     1  UNL1       -0.0470
      8  C          5.8030    1.3680   -0.8200 C.2     1  UNL1        0.0040
      9  C          6.1300   -0.3540    0.7550 C.2     1  UNL1        0.0040
     10  C          5.0960    2.0970    0.1090 C.2     1  UNL1        0.0000
     11  C          5.4220    0.3770    1.6850 C.2     1  UNL1        0.0000
     12  C          4.8920    1.6120    1.3850 C.2     1  UNL1        0.0000
@<TRIPOS>BOND
     1     1     6    1
     2     1     2    1
     3     5     4    1
     4     6     7    1
     5     4     2    1
     6     2     3    2
     7     8     7    2
     8     8    10    1
     9     7     9    1
    10    10    12    2
    11     9    11    2
    12    12    11    1
