@<TRIPOS>MOLECULE
/home/cewinharhar/GITHUB/reincatalyze/data/processed/docking_pred/2023-Apr-25-2248_maxeplen10_maxtrainstep1000_exh16_gamma099_lrac3e-4_lrcr1e-3/80c9945afd0f5f9f0270d56cce32b054e5c09707_ligand_2.pdbqt
 12 12 0 0 0
SMALL
GASTEIGER

@<TRIPOS>ATOM
      1  C          8.3920   -0.7660   -1.9840 C.3     1  UNL1        0.1270
      2  C          8.3880   -1.9530   -2.8570 C.2     1  UNL1        0.3030
      3  O          7.2860   -2.4090   -3.2640 O.2     1  UNL1       -0.2520
      4  O          9.5710   -2.5940   -3.2530 O.3     1  UNL1       -0.4810
      5  H          9.6240   -3.6000   -3.1770 H       1  UNL1        0.2960
      6  C          7.0830   -0.0000   -2.0500 C.3     1  UNL1        0.0470
      7  C          6.4770    0.1360   -0.6990 C.2     1  UNL1       -0.0470
      8  C          6.5830   -0.8880    0.2310 C.2     1  UNL1        0.0040
      9  C          5.7790    1.2620   -0.3020 C.2     1  UNL1        0.0040
     10  C          6.0250   -0.7970    1.4850 C.2     1  UNL1        0.0000
     11  C          5.2210    1.3520    0.9550 C.2     1  UNL1        0.0000
     12  C          5.3290    0.3310    1.8710 C.2     1  UNL1        0.0000
@<TRIPOS>BOND
     1     3     2    2
     2     4     5    1
     3     4     2    1
     4     2     1    1
     5     6     1    1
     6     6     7    1
     7     7     9    2
     8     7     8    1
     9     9    11    1
    10     8    10    2
    11    11    12    2
    12    10    12    1
