MODEL 1
REMARK VINA RESULT:      -7.4      0.000      0.000
REMARK SMILES O=C(O)CCc1ccccc1
REMARK SMILES IDX 4 1 2 2 1 3 3 4 5 6 6 7 7 8 11 9 8 10 10 11 9 12
REMARK H PARENT 3 5
REMARK Flexibility Score: inf
ROOT
ATOM      1  C   UNL     1       8.416  -0.620  -2.165  1.00  0.00     0.127 C 
ENDROOT
BRANCH   1   2
ATOM      2  C   UNL     1       8.457  -1.896  -2.902  1.00  0.00     0.303 C 
ATOM      3  O   UNL     1       9.569  -2.463  -3.083  1.00  0.00    -0.252 OA
BRANCH   2   4
ATOM      4  O   UNL     1       7.300  -2.504  -3.409  1.00  0.00    -0.481 OA
ATOM      5  H   UNL     1       6.403  -2.224  -3.035  1.00  0.00     0.296 HD
ENDBRANCH   2   4
ENDBRANCH   1   2
BRANCH   1   6
ATOM      6  C   UNL     1       7.027  -0.007  -2.155  1.00  0.00     0.047 C 
BRANCH   6   7
ATOM      7  C   UNL     1       6.484   0.058  -0.774  1.00  0.00    -0.047 A 
ATOM      8  C   UNL     1       5.828   1.195  -0.324  1.00  0.00     0.004 A 
ATOM      9  C   UNL     1       6.606  -0.983   0.128  1.00  0.00     0.004 A 
ATOM     10  C   UNL     1       5.323   1.290   0.952  1.00  0.00     0.000 A 
ATOM     11  C   UNL     1       6.099  -0.886   1.407  1.00  0.00     0.000 A 
ATOM     12  C   UNL     1       5.451   0.245   1.846  1.00  0.00     0.000 A 
ENDBRANCH   6   7
ENDBRANCH   1   6
TORSDOF 4
ENDMDL
MODEL 2
REMARK VINA RESULT:      -7.3      0.151      1.727
REMARK SMILES O=C(O)CCc1ccccc1
REMARK SMILES IDX 4 1 2 2 1 3 3 4 5 6 6 7 7 8 11 9 8 10 10 11 9 12
REMARK H PARENT 3 5
REMARK Flexibility Score: inf
ROOT
ATOM      1  C   UNL     1       8.392  -0.766  -1.984  1.00  0.00     0.127 C 
ENDROOT
BRANCH   1   2
ATOM      2  C   UNL     1       8.388  -1.953  -2.857  1.00  0.00     0.303 C 
ATOM      3  O   UNL     1       7.286  -2.409  -3.264  1.00  0.00    -0.252 OA
BRANCH   2   4
ATOM      4  O   UNL     1       9.571  -2.594  -3.253  1.00  0.00    -0.481 OA
ATOM      5  H   UNL     1       9.624  -3.600  -3.177  1.00  0.00     0.296 HD
ENDBRANCH   2   4
ENDBRANCH   1   2
BRANCH   1   6
ATOM      6  C   UNL     1       7.083  -0.000  -2.050  1.00  0.00     0.047 C 
BRANCH   6   7
ATOM      7  C   UNL     1       6.477   0.136  -0.699  1.00  0.00    -0.047 A 
ATOM      8  C   UNL     1       6.583  -0.888   0.231  1.00  0.00     0.004 A 
ATOM      9  C   UNL     1       5.779   1.262  -0.302  1.00  0.00     0.004 A 
ATOM     10  C   UNL     1       6.025  -0.797   1.485  1.00  0.00     0.000 A 
ATOM     11  C   UNL     1       5.221   1.352   0.955  1.00  0.00     0.000 A 
ATOM     12  C   UNL     1       5.329   0.331   1.871  1.00  0.00     0.000 A 
ENDBRANCH   6   7
ENDBRANCH   1   6
TORSDOF 4
ENDMDL
MODEL 3
REMARK VINA RESULT:      -6.9      3.397      5.092
REMARK SMILES O=C(O)CCc1ccccc1
REMARK SMILES IDX 4 1 2 2 1 3 3 4 5 6 6 7 7 8 11 9 8 10 10 11 9 12
REMARK H PARENT 3 5
REMARK Flexibility Score: inf
ROOT
ATOM      1  C   UNL     1       5.011   1.774   0.743  1.00  0.00     0.127 C 
ENDROOT
BRANCH   1   2
ATOM      2  C   UNL     1       4.471   1.099   1.936  1.00  0.00     0.303 C 
ATOM      3  O   UNL     1       5.147   0.185   2.481  1.00  0.00    -0.252 OA
BRANCH   2   4
ATOM      4  O   UNL     1       3.228   1.441   2.490  1.00  0.00    -0.481 OA
ATOM      5  H   UNL     1       3.053   2.408   2.725  1.00  0.00     0.296 HD
ENDBRANCH   2   4
ENDBRANCH   1   2
BRANCH   1   6
ATOM      6  C   UNL     1       6.525   1.890   0.785  1.00  0.00     0.047 C 
BRANCH   6   7
ATOM      7  C   UNL     1       7.150   1.109  -0.314  1.00  0.00    -0.047 A 
ATOM      8  C   UNL     1       6.402   0.202  -1.051  1.00  0.00     0.004 A 
ATOM      9  C   UNL     1       8.485   1.229  -0.652  1.00  0.00     0.004 A 
ATOM     10  C   UNL     1       6.954  -0.544  -2.068  1.00  0.00     0.000 A 
ATOM     11  C   UNL     1       9.036   0.482  -1.671  1.00  0.00     0.000 A 
ATOM     12  C   UNL     1       8.288  -0.417  -2.397  1.00  0.00     0.000 A 
ENDBRANCH   6   7
ENDBRANCH   1   6
TORSDOF 4
ENDMDL
MODEL 4
REMARK VINA RESULT:      -6.7      1.922      2.285
REMARK SMILES O=C(O)CCc1ccccc1
REMARK SMILES IDX 4 1 2 2 1 3 3 4 5 6 6 7 7 8 11 9 8 10 10 11 9 12
REMARK H PARENT 3 5
REMARK Flexibility Score: inf
ROOT
ATOM      1  C   UNL     1       8.213   0.226  -2.143  1.00  0.00     0.127 C 
ENDROOT
BRANCH   1   2
ATOM      2  C   UNL     1       9.372   0.345  -1.241  1.00  0.00     0.303 C 
ATOM      3  O   UNL     1       9.445  -0.412  -0.235  1.00  0.00    -0.252 OA
BRANCH   2   4
ATOM      4  O   UNL     1      10.400   1.273  -1.462  1.00  0.00    -0.481 OA
ATOM      5  H   UNL     1      10.244   2.016  -2.130  1.00  0.00     0.296 HD
ENDBRANCH   2   4
ENDBRANCH   1   2
BRANCH   1   6
ATOM      6  C   UNL     1       7.109  -0.631  -1.549  1.00  0.00     0.047 C 
BRANCH   6   7
ATOM      7  C   UNL     1       6.341   0.124  -0.525  1.00  0.00    -0.047 A 
ATOM      8  C   UNL     1       5.803   1.368  -0.820  1.00  0.00     0.004 A 
ATOM      9  C   UNL     1       6.130  -0.354   0.755  1.00  0.00     0.004 A 
ATOM     10  C   UNL     1       5.096   2.097   0.109  1.00  0.00     0.000 A 
ATOM     11  C   UNL     1       5.422   0.377   1.685  1.00  0.00     0.000 A 
ATOM     12  C   UNL     1       4.892   1.612   1.385  1.00  0.00     0.000 A 
ENDBRANCH   6   7
ENDBRANCH   1   6
TORSDOF 4
ENDMDL
MODEL 5
REMARK VINA RESULT:      -6.6      1.889      2.900
REMARK SMILES O=C(O)CCc1ccccc1
REMARK SMILES IDX 4 1 2 2 1 3 3 4 5 6 6 7 7 8 11 9 8 10 10 11 9 12
REMARK H PARENT 3 5
REMARK Flexibility Score: inf
ROOT
ATOM      1  C   UNL     1       8.244  -1.660   1.062  1.00  0.00     0.127 C 
ENDROOT
BRANCH   1   2
ATOM      2  C   UNL     1       8.541  -2.878   0.288  1.00  0.00     0.303 C 
ATOM      3  O   UNL     1       9.180  -3.814   0.840  1.00  0.00    -0.252 OA
BRANCH   2   4
ATOM      4  O   UNL     1       8.134  -3.035  -1.045  1.00  0.00    -0.481 OA
ATOM      5  H   UNL     1       7.250  -3.489  -1.231  1.00  0.00     0.296 HD
ENDBRANCH   2   4
ENDBRANCH   1   2
BRANCH   1   6
ATOM      6  C   UNL     1       6.769  -1.540   1.402  1.00  0.00     0.047 C 
BRANCH   6   7
ATOM      7  C   UNL     1       6.199  -0.279   0.862  1.00  0.00    -0.047 A 
ATOM      8  C   UNL     1       6.451   0.109  -0.447  1.00  0.00     0.004 A 
ATOM      9  C   UNL     1       5.410   0.569   1.617  1.00  0.00     0.004 A 
ATOM     10  C   UNL     1       5.946   1.276  -0.973  1.00  0.00     0.000 A 
ATOM     11  C   UNL     1       4.905   1.738   1.088  1.00  0.00     0.000 A 
ATOM     12  C   UNL     1       5.160   2.116  -0.210  1.00  0.00     0.000 A 
ENDBRANCH   6   7
ENDBRANCH   1   6
TORSDOF 4
ENDMDL
