@<TRIPOS>MOLECULE
/home/cewinharhar/GITHUB/reincatalyze/data/processed/docking_pred/2023-Apr-25-2248_maxeplen10_maxtrainstep1000_exh16_gamma099_lrac3e-4_lrcr1e-3/80c9945afd0f5f9f0270d56cce32b054e5c09707_ligand_2.pdbqt
 12 12 0 0 0
SMALL
GASTEIGER

@<TRIPOS>ATOM
      1  C          5.0110    1.7740    0.7430 C.3     1  UNL1        0.1270
      2  C          4.4710    1.0990    1.9360 C.2     1  UNL1        0.3030
      3  O          5.1470    0.1850    2.4810 O.2     1  UNL1       -0.2520
      4  O          3.2280    1.4410    2.4900 O.3     1  UNL1       -0.4810
      5  H          3.0530    2.4080    2.7250 H       1  UNL1        0.2960
      6  C          6.5250    1.8900    0.7850 C.3     1  UNL1        0.0470
      7  C          7.1500    1.1090   -0.3140 C.2     1  UNL1       -0.0470
      8  C          6.4020    0.2020   -1.0510 C.2     1  UNL1        0.0040
      9  C          8.4850    1.2290   -0.6520 C.2     1  UNL1        0.0040
     10  C          6.9540   -0.5440   -2.0680 C.2     1  UNL1        0.0000
     11  C          9.0360    0.4820   -1.6710 C.2     1  UNL1        0.0000
     12  C          8.2880   -0.4170   -2.3970 C.2     1  UNL1        0.0000
@<TRIPOS>BOND
     1    12    10    2
     2    12    11    1
     3    10     8    1
     4    11     9    2
     5     8     7    2
     6     9     7    1
     7     7     6    1
     8     1     6    1
     9     1     2    1
    10     2     3    2
    11     2     4    1
    12     4     5    1
