MODEL 1
REMARK VINA RESULT:      -7.3      0.000      0.000
REMARK SMILES O=C(O)CCc1ccccc1
REMARK SMILES IDX 4 1 2 2 1 3 3 4 5 6 6 7 7 8 11 9 8 10 10 11 9 12
REMARK H PARENT 3 5
REMARK Flexibility Score: inf
ROOT
ATOM      1  C   UNL     1       8.425  -0.629  -2.154  1.00  0.00     0.127 C 
ENDROOT
BRANCH   1   2
ATOM      2  C   UNL     1       8.463  -1.898  -2.903  1.00  0.00     0.303 C 
ATOM      3  O   UNL     1       9.572  -2.473  -3.076  1.00  0.00    -0.252 OA
BRANCH   2   4
ATOM      4  O   UNL     1       7.307  -2.491  -3.429  1.00  0.00    -0.481 OA
ATOM      5  H   UNL     1       6.647  -2.913  -2.791  1.00  0.00     0.296 HD
ENDBRANCH   2   4
ENDBRANCH   1   2
BRANCH   1   6
ATOM      6  C   UNL     1       7.043   0.000  -2.162  1.00  0.00     0.047 C 
BRANCH   6   7
ATOM      7  C   UNL     1       6.488   0.084  -0.786  1.00  0.00    -0.047 A 
ATOM      8  C   UNL     1       5.807   1.217  -0.365  1.00  0.00     0.004 A 
ATOM      9  C   UNL     1       6.623  -0.936   0.139  1.00  0.00     0.004 A 
ATOM     10  C   UNL     1       5.290   1.329   0.906  1.00  0.00     0.000 A 
ATOM     11  C   UNL     1       6.105  -0.822   1.411  1.00  0.00     0.000 A 
ATOM     12  C   UNL     1       5.432   0.306   1.822  1.00  0.00     0.000 A 
ENDBRANCH   6   7
ENDBRANCH   1   6
TORSDOF 4
ENDMDL
MODEL 2
REMARK VINA RESULT:      -7.3      0.117      1.724
REMARK SMILES O=C(O)CCc1ccccc1
REMARK SMILES IDX 4 1 2 2 1 3 3 4 5 6 6 7 7 8 11 9 8 10 10 11 9 12
REMARK H PARENT 3 5
REMARK Flexibility Score: inf
ROOT
ATOM      1  C   UNL     1       8.403  -0.719  -2.040  1.00  0.00     0.127 C 
ENDROOT
BRANCH   1   2
ATOM      2  C   UNL     1       8.397  -1.938  -2.869  1.00  0.00     0.303 C 
ATOM      3  O   UNL     1       7.293  -2.418  -3.243  1.00  0.00    -0.252 OA
BRANCH   2   4
ATOM      4  O   UNL     1       9.579  -2.583  -3.258  1.00  0.00    -0.481 OA
ATOM      5  H   UNL     1       9.559  -3.178  -4.076  1.00  0.00     0.296 HD
ENDBRANCH   2   4
ENDBRANCH   1   2
BRANCH   1   6
ATOM      6  C   UNL     1       7.076   0.017  -2.091  1.00  0.00     0.047 C 
BRANCH   6   7
ATOM      7  C   UNL     1       6.483   0.141  -0.735  1.00  0.00    -0.047 A 
ATOM      8  C   UNL     1       6.598  -0.892   0.185  1.00  0.00     0.004 A 
ATOM      9  C   UNL     1       5.788   1.262  -0.321  1.00  0.00     0.004 A 
ATOM     10  C   UNL     1       6.051  -0.812   1.445  1.00  0.00     0.000 A 
ATOM     11  C   UNL     1       5.240   1.341   0.941  1.00  0.00     0.000 A 
ATOM     12  C   UNL     1       5.357   0.312   1.848  1.00  0.00     0.000 A 
ENDBRANCH   6   7
ENDBRANCH   1   6
TORSDOF 4
ENDMDL
MODEL 3
REMARK VINA RESULT:      -6.8      3.399      5.091
REMARK SMILES O=C(O)CCc1ccccc1
REMARK SMILES IDX 4 1 2 2 1 3 3 4 5 6 6 7 7 8 11 9 8 10 10 11 9 12
REMARK H PARENT 3 5
REMARK Flexibility Score: inf
ROOT
ATOM      1  C   UNL     1       5.004   1.740   0.712  1.00  0.00     0.127 C 
ENDROOT
BRANCH   1   2
ATOM      2  C   UNL     1       4.470   1.099   1.926  1.00  0.00     0.303 C 
ATOM      3  O   UNL     1       5.148   0.199   2.493  1.00  0.00    -0.252 OA
BRANCH   2   4
ATOM      4  O   UNL     1       3.231   1.455   2.477  1.00  0.00    -0.481 OA
ATOM      5  H   UNL     1       2.984   1.092   3.388  1.00  0.00     0.296 HD
ENDBRANCH   2   4
ENDBRANCH   1   2
BRANCH   1   6
ATOM      6  C   UNL     1       6.515   1.881   0.755  1.00  0.00     0.047 C 
BRANCH   6   7
ATOM      7  C   UNL     1       7.154   1.091  -0.330  1.00  0.00    -0.047 A 
ATOM      8  C   UNL     1       6.419   0.169  -1.062  1.00  0.00     0.004 A 
ATOM      9  C   UNL     1       8.491   1.217  -0.660  1.00  0.00     0.004 A 
ATOM     10  C   UNL     1       6.984  -0.584  -2.065  1.00  0.00     0.000 A 
ATOM     11  C   UNL     1       9.055   0.461  -1.665  1.00  0.00     0.000 A 
ATOM     12  C   UNL     1       8.320  -0.452  -2.386  1.00  0.00     0.000 A 
ENDBRANCH   6   7
ENDBRANCH   1   6
TORSDOF 4
ENDMDL
MODEL 4
REMARK VINA RESULT:      -6.6      1.988      2.356
REMARK SMILES O=C(O)CCc1ccccc1
REMARK SMILES IDX 4 1 2 2 1 3 3 4 5 6 6 7 7 8 11 9 8 10 10 11 9 12
REMARK H PARENT 3 5
REMARK Flexibility Score: inf
ROOT
ATOM      1  C   UNL     1       8.365   0.280  -2.000  1.00  0.00     0.127 C 
ENDROOT
BRANCH   1   2
ATOM      2  C   UNL     1       9.496   0.376  -1.061  1.00  0.00     0.303 C 
ATOM      3  O   UNL     1       9.527  -0.390  -0.060  1.00  0.00    -0.252 OA
BRANCH   2   4
ATOM      4  O   UNL     1      10.543   1.292  -1.241  1.00  0.00    -0.481 OA
ATOM      5  H   UNL     1      10.969   1.706  -0.424  1.00  0.00     0.296 HD
ENDBRANCH   2   4
ENDBRANCH   1   2
BRANCH   1   6
ATOM      6  C   UNL     1       7.249  -0.601  -1.467  1.00  0.00     0.047 C 
BRANCH   6   7
ATOM      7  C   UNL     1       6.416   0.133  -0.480  1.00  0.00    -0.047 A 
ATOM      8  C   UNL     1       5.855   1.361  -0.800  1.00  0.00     0.004 A 
ATOM      9  C   UNL     1       6.165  -0.348   0.792  1.00  0.00     0.004 A 
ATOM     10  C   UNL     1       5.089   2.071   0.096  1.00  0.00     0.000 A 
ATOM     11  C   UNL     1       5.396   0.363   1.688  1.00  0.00     0.000 A 
ATOM     12  C   UNL     1       4.844   1.582   1.363  1.00  0.00     0.000 A 
ENDBRANCH   6   7
ENDBRANCH   1   6
TORSDOF 4
ENDMDL
MODEL 5
REMARK VINA RESULT:      -6.5      3.694      5.117
REMARK SMILES O=C(O)CCc1ccccc1
REMARK SMILES IDX 4 1 2 2 1 3 3 4 5 6 6 7 7 8 11 9 8 10 10 11 9 12
REMARK H PARENT 3 5
REMARK Flexibility Score: inf
ROOT
ATOM      1  C   UNL     1       5.322   2.810   0.107  1.00  0.00     0.127 C 
ENDROOT
BRANCH   1   2
ATOM      2  C   UNL     1       6.171   3.758   0.850  1.00  0.00     0.303 C 
ATOM      3  O   UNL     1       6.253   3.653   2.104  1.00  0.00    -0.252 OA
BRANCH   2   4
ATOM      4  O   UNL     1       6.895   4.774   0.210  1.00  0.00    -0.481 OA
ATOM      5  H   UNL     1       6.830   4.853  -0.796  1.00  0.00     0.296 HD
ENDBRANCH   2   4
ENDBRANCH   1   2
BRANCH   1   6
ATOM      6  C   UNL     1       5.255   1.450   0.780  1.00  0.00     0.047 C 
BRANCH   6   7
ATOM      7  C   UNL     1       6.073   0.451   0.043  1.00  0.00    -0.047 A 
ATOM      8  C   UNL     1       6.576  -0.668   0.692  1.00  0.00     0.004 A 
ATOM      9  C   UNL     1       6.382   0.579  -1.298  1.00  0.00     0.004 A 
ATOM     10  C   UNL     1       7.345  -1.605   0.041  1.00  0.00     0.000 A 
ATOM     11  C   UNL     1       7.152  -0.361  -1.949  1.00  0.00     0.000 A 
ATOM     12  C   UNL     1       7.649  -1.467  -1.298  1.00  0.00     0.000 A 
ENDBRANCH   6   7
ENDBRANCH   1   6
TORSDOF 4
ENDMDL
