@<TRIPOS>MOLECULE
/home/cewinharhar/GITHUB/reincatalyze/data/processed/docking_pred/2023-Apr-25-2248_maxeplen10_maxtrainstep1000_exh16_gamma099_lrac3e-4_lrcr1e-3/80ffcc0cdcaea1df7ad243f542ab1163fa4dc1ce_ligand_2.pdbqt
 12 12 0 0 0
SMALL
GASTEIGER

@<TRIPOS>ATOM
      1  C          5.0040    1.7400    0.7120 C.3     1  UNL1        0.1270
      2  C          4.4700    1.0990    1.9260 C.2     1  UNL1        0.3030
      3  O          5.1480    0.1990    2.4930 O.2     1  UNL1       -0.2520
      4  O          3.2310    1.4550    2.4770 O.3     1  UNL1       -0.4810
      5  H          2.9840    1.0920    3.3880 H       1  UNL1        0.2960
      6  C          6.5150    1.8810    0.7550 C.3     1  UNL1        0.0470
      7  C          7.1540    1.0910   -0.3300 C.2     1  UNL1       -0.0470
      8  C          6.4190    0.1690   -1.0620 C.2     1  UNL1        0.0040
      9  C          8.4910    1.2170   -0.6600 C.2     1  UNL1        0.0040
     10  C          6.9840   -0.5840   -2.0650 C.2     1  UNL1        0.0000
     11  C          9.0550    0.4610   -1.6650 C.2     1  UNL1        0.0000
     12  C          8.3200   -0.4520   -2.3860 C.2     1  UNL1        0.0000
@<TRIPOS>BOND
     1    12    10    2
     2    12    11    1
     3    10     8    1
     4    11     9    2
     5     8     7    2
     6     9     7    1
     7     7     6    1
     8     1     6    1
     9     1     2    1
    10     2     4    1
    11     2     3    2
    12     4     5    1
