@<TRIPOS>MOLECULE
/home/cewinharhar/GITHUB/reincatalyze/data/processed/docking_pred/2023-Apr-25-2248_maxeplen10_maxtrainstep1000_exh16_gamma099_lrac3e-4_lrcr1e-3/80ffcc0cdcaea1df7ad243f542ab1163fa4dc1ce_ligand_2.pdbqt
 12 12 0 0 0
SMALL
GASTEIGER

@<TRIPOS>ATOM
      1  C          8.4030   -0.7190   -2.0400 C.3     1  UNL1        0.1270
      2  C          8.3970   -1.9380   -2.8690 C.2     1  UNL1        0.3030
      3  O          7.2930   -2.4180   -3.2430 O.2     1  UNL1       -0.2520
      4  O          9.5790   -2.5830   -3.2580 O.3     1  UNL1       -0.4810
      5  H          9.5590   -3.1780   -4.0760 H       1  UNL1        0.2960
      6  C          7.0760    0.0170   -2.0910 C.3     1  UNL1        0.0470
      7  C          6.4830    0.1410   -0.7350 C.2     1  UNL1       -0.0470
      8  C          6.5980   -0.8920    0.1850 C.2     1  UNL1        0.0040
      9  C          5.7880    1.2620   -0.3210 C.2     1  UNL1        0.0040
     10  C          6.0510   -0.8120    1.4450 C.2     1  UNL1        0.0000
     11  C          5.2400    1.3410    0.9410 C.2     1  UNL1        0.0000
     12  C          5.3570    0.3120    1.8480 C.2     1  UNL1        0.0000
@<TRIPOS>BOND
     1     5     4    1
     2     4     2    1
     3     3     2    2
     4     2     1    1
     5     6     1    1
     6     6     7    1
     7     7     9    2
     8     7     8    1
     9     9    11    1
    10     8    10    2
    11    11    12    2
    12    10    12    1
