@<TRIPOS>MOLECULE
/home/cewinharhar/GITHUB/reincatalyze/data/processed/docking_pred/2023-Apr-25-2248_maxeplen10_maxtrainstep1000_exh16_gamma099_lrac3e-4_lrcr1e-3/80ffcc0cdcaea1df7ad243f542ab1163fa4dc1ce_ligand_2.pdbqt
 12 12 0 0 0
SMALL
GASTEIGER

@<TRIPOS>ATOM
      1  C          8.3650    0.2800   -2.0000 C.3     1  UNL1        0.1270
      2  C          9.4960    0.3760   -1.0610 C.2     1  UNL1        0.3030
      3  O          9.5270   -0.3900   -0.0600 O.2     1  UNL1       -0.2520
      4  O         10.5430    1.2920   -1.2410 O.3     1  UNL1       -0.4810
      5  H         10.9690    1.7060   -0.4240 H       1  UNL1        0.2960
      6  C          7.2490   -0.6010   -1.4670 C.3     1  UNL1        0.0470
      7  C          6.4160    0.1330   -0.4800 C.2     1  UNL1       -0.0470
      8  C          5.8550    1.3610   -0.8000 C.2     1  UNL1        0.0040
      9  C          6.1650   -0.3480    0.7920 C.2     1  UNL1        0.0040
     10  C          5.0890    2.0710    0.0960 C.2     1  UNL1        0.0000
     11  C          5.3960    0.3630    1.6880 C.2     1  UNL1        0.0000
     12  C          4.8440    1.5820    1.3630 C.2     1  UNL1        0.0000
@<TRIPOS>BOND
     1     1     6    1
     2     1     2    1
     3     6     7    1
     4     4     2    1
     5     4     5    1
     6     2     3    2
     7     8     7    2
     8     8    10    1
     9     7     9    1
    10    10    12    2
    11     9    11    2
    12    12    11    1
