@<TRIPOS>MOLECULE
/home/cewinharhar/GITHUB/reincatalyze/data/processed/docking_pred/2023-Apr-25-2248_maxeplen10_maxtrainstep1000_exh16_gamma099_lrac3e-4_lrcr1e-3/80ffcc0cdcaea1df7ad243f542ab1163fa4dc1ce_ligand_2.pdbqt
 12 12 0 0 0
SMALL
GASTEIGER

@<TRIPOS>ATOM
      1  C          8.4250   -0.6290   -2.1540 C.3     1  UNL1        0.1270
      2  C          8.4630   -1.8980   -2.9030 C.2     1  UNL1        0.3030
      3  O          9.5720   -2.4730   -3.0760 O.2     1  UNL1       -0.2520
      4  O          7.3070   -2.4910   -3.4290 O.3     1  UNL1       -0.4810
      5  H          6.6470   -2.9130   -2.7910 H       1  UNL1        0.2960
      6  C          7.0430    0.0000   -2.1620 C.3     1  UNL1        0.0470
      7  C          6.4880    0.0840   -0.7860 C.2     1  UNL1       -0.0470
      8  C          5.8070    1.2170   -0.3650 C.2     1  UNL1        0.0040
      9  C          6.6230   -0.9360    0.1390 C.2     1  UNL1        0.0040
     10  C          5.2900    1.3290    0.9060 C.2     1  UNL1        0.0000
     11  C          6.1050   -0.8220    1.4110 C.2     1  UNL1        0.0000
     12  C          5.4320    0.3060    1.8220 C.2     1  UNL1        0.0000
@<TRIPOS>BOND
     1     4     2    1
     2     4     5    1
     3     3     2    2
     4     2     1    1
     5     6     1    1
     6     6     7    1
     7     7     8    2
     8     7     9    1
     9     8    10    1
    10     9    11    2
    11    10    12    2
    12    11    12    1
