@<TRIPOS>MOLECULE
/home/cewinharhar/GITHUB/reincatalyze/data/processed/docking_pred/2023-Apr-25-2248_maxeplen10_maxtrainstep1000_exh16_gamma099_lrac3e-4_lrcr1e-3/80ffcc0cdcaea1df7ad243f542ab1163fa4dc1ce_ligand_2.pdbqt
 12 12 0 0 0
SMALL
GASTEIGER

@<TRIPOS>ATOM
      1  C          5.3220    2.8100    0.1070 C.3     1  UNL1        0.1270
      2  C          6.1710    3.7580    0.8500 C.2     1  UNL1        0.3030
      3  O          6.2530    3.6530    2.1040 O.2     1  UNL1       -0.2520
      4  O          6.8950    4.7740    0.2100 O.3     1  UNL1       -0.4810
      5  H          6.8300    4.8530   -0.7960 H       1  UNL1        0.2960
      6  C          5.2550    1.4500    0.7800 C.3     1  UNL1        0.0470
      7  C          6.0730    0.4510    0.0430 C.2     1  UNL1       -0.0470
      8  C          6.5760   -0.6680    0.6920 C.2     1  UNL1        0.0040
      9  C          6.3820    0.5790   -1.2980 C.2     1  UNL1        0.0040
     10  C          7.3450   -1.6050    0.0410 C.2     1  UNL1        0.0000
     11  C          7.1520   -0.3610   -1.9490 C.2     1  UNL1        0.0000
     12  C          7.6490   -1.4670   -1.2980 C.2     1  UNL1        0.0000
@<TRIPOS>BOND
     1    11     9    1
     2    11    12    2
     3     9     7    2
     4    12    10    1
     5     5     4    1
     6    10     8    2
     7     7     8    1
     8     7     6    1
     9     1     6    1
    10     1     2    1
    11     4     2    1
    12     2     3    2
