@<TRIPOS>MOLECULE
/home/cewinharhar/GITHUB/reincatalyze/data/processed/docking_pred/2023-Apr-25-2248_maxeplen10_maxtrainstep1000_exh16_gamma099_lrac3e-4_lrcr1e-3/81487a167534eaf1a49a57d95a0bec7d9495d7bd_ligand_2.pdbqt
 12 12 0 0 0
SMALL
GASTEIGER

@<TRIPOS>ATOM
      1  C          8.3840   -0.6770   -2.0940 C.3     1  UNL1        0.1270
      2  C          8.3930   -1.9200   -2.8850 C.2     1  UNL1        0.3030
      3  O          7.2950   -2.4230   -3.2480 O.2     1  UNL1       -0.2520
      4  O          9.5830   -2.5650   -3.2510 O.3     1  UNL1       -0.4810
      5  H          9.5240   -3.4520   -3.7320 H       1  UNL1        0.2960
      6  C          7.0270    0.0050   -2.1120 C.3     1  UNL1        0.0470
      7  C          6.4690    0.1160   -0.7390 C.2     1  UNL1       -0.0470
      8  C          6.5950   -0.9310    0.1630 C.2     1  UNL1        0.0040
      9  C          5.7980    1.2390   -0.2920 C.2     1  UNL1        0.0040
     10  C          6.0800   -0.8630    1.4370 C.2     1  UNL1        0.0000
     11  C          5.2830    1.3060    0.9840 C.2     1  UNL1        0.0000
     12  C          5.4100    0.2620    1.8730 C.2     1  UNL1        0.0000
@<TRIPOS>BOND
     1     5     4    1
     2     4     2    1
     3     3     2    2
     4     2     1    1
     5     6     1    1
     6     6     7    1
     7     7     9    2
     8     7     8    1
     9     9    11    1
    10     8    10    2
    11    11    12    2
    12    10    12    1
