@<TRIPOS>MOLECULE
/home/cewinharhar/GITHUB/reincatalyze/data/processed/docking_pred/2023-Apr-25-2248_maxeplen10_maxtrainstep1000_exh16_gamma099_lrac3e-4_lrcr1e-3/81487a167534eaf1a49a57d95a0bec7d9495d7bd_ligand_2.pdbqt
 12 12 0 0 0
SMALL
GASTEIGER

@<TRIPOS>ATOM
      1  C          5.0420    1.7240    0.7430 C.3     1  UNL1        0.1270
      2  C          4.5660    1.0300    1.9530 C.2     1  UNL1        0.3030
      3  O          5.3040    0.1600    2.4890 O.2     1  UNL1       -0.2520
      4  O          3.3190    1.3060    2.5310 O.3     1  UNL1       -0.4810
      5  H          2.5130    1.3910    1.9260 H       1  UNL1        0.2960
      6  C          6.5520    1.8760    0.7250 C.3     1  UNL1        0.0470
      7  C          7.1570    1.0580   -0.3580 C.2     1  UNL1       -0.0470
      8  C          8.5070    1.1710   -0.6610 C.2     1  UNL1        0.0040
      9  C          6.4260    0.1620   -1.1170 C.2     1  UNL1        0.0040
     10  C          9.0940    0.4350   -1.6650 C.2     1  UNL1        0.0000
     11  C          7.0160   -0.5740   -2.1210 C.2     1  UNL1        0.0000
     12  C          8.3550   -0.4550   -2.4170 C.2     1  UNL1        0.0000
@<TRIPOS>BOND
     1    12    11    2
     2    12    10    1
     3    11     9    1
     4    10     8    2
     5     9     7    2
     6     8     7    1
     7     7     6    1
     8     6     1    1
     9     1     2    1
    10     5     4    1
    11     2     3    2
    12     2     4    1
