MODEL 1
REMARK VINA RESULT:      -7.3      0.000      0.000
REMARK SMILES O=C(O)CCc1ccccc1
REMARK SMILES IDX 4 1 2 2 1 3 3 4 5 6 6 7 7 8 11 9 8 10 10 11 9 12
REMARK H PARENT 3 5
REMARK Flexibility Score: inf
ROOT
ATOM      1  C   UNL     1       8.288  -0.919  -1.788  1.00  0.00     0.127 C 
ENDROOT
BRANCH   1   2
ATOM      2  C   UNL     1       8.381  -1.963  -2.824  1.00  0.00     0.303 C 
ATOM      3  O   UNL     1       9.515  -2.420  -3.133  1.00  0.00    -0.252 OA
BRANCH   2   4
ATOM      4  O   UNL     1       7.249  -2.469  -3.480  1.00  0.00    -0.481 OA
ATOM      5  H   UNL     1       7.377  -2.961  -4.354  1.00  0.00     0.296 HD
ENDBRANCH   2   4
ENDBRANCH   1   2
BRANCH   1   6
ATOM      6  C   UNL     1       7.076  -0.025  -1.981  1.00  0.00     0.047 C 
BRANCH   6   7
ATOM      7  C   UNL     1       6.413   0.260  -0.683  1.00  0.00    -0.047 A 
ATOM      8  C   UNL     1       6.462  -0.660   0.355  1.00  0.00     0.004 A 
ATOM      9  C   UNL     1       5.714   1.429  -0.440  1.00  0.00     0.004 A 
ATOM     10  C   UNL     1       5.849  -0.430   1.565  1.00  0.00     0.000 A 
ATOM     11  C   UNL     1       5.101   1.658   0.773  1.00  0.00     0.000 A 
ATOM     12  C   UNL     1       5.153   0.740   1.797  1.00  0.00     0.000 A 
ENDBRANCH   6   7
ENDBRANCH   1   6
TORSDOF 4
ENDMDL
MODEL 2
REMARK VINA RESULT:      -7.2      0.339      1.028
REMARK SMILES O=C(O)CCc1ccccc1
REMARK SMILES IDX 4 1 2 2 1 3 3 4 5 6 6 7 7 8 11 9 8 10 10 11 9 12
REMARK H PARENT 3 5
REMARK Flexibility Score: inf
ROOT
ATOM      1  C   UNL     1       8.384  -0.677  -2.094  1.00  0.00     0.127 C 
ENDROOT
BRANCH   1   2
ATOM      2  C   UNL     1       8.393  -1.920  -2.885  1.00  0.00     0.303 C 
ATOM      3  O   UNL     1       7.295  -2.423  -3.248  1.00  0.00    -0.252 OA
BRANCH   2   4
ATOM      4  O   UNL     1       9.583  -2.565  -3.251  1.00  0.00    -0.481 OA
ATOM      5  H   UNL     1       9.524  -3.452  -3.732  1.00  0.00     0.296 HD
ENDBRANCH   2   4
ENDBRANCH   1   2
BRANCH   1   6
ATOM      6  C   UNL     1       7.027   0.005  -2.112  1.00  0.00     0.047 C 
BRANCH   6   7
ATOM      7  C   UNL     1       6.469   0.116  -0.739  1.00  0.00    -0.047 A 
ATOM      8  C   UNL     1       6.595  -0.931   0.163  1.00  0.00     0.004 A 
ATOM      9  C   UNL     1       5.798   1.239  -0.292  1.00  0.00     0.004 A 
ATOM     10  C   UNL     1       6.080  -0.863   1.437  1.00  0.00     0.000 A 
ATOM     11  C   UNL     1       5.283   1.306   0.984  1.00  0.00     0.000 A 
ATOM     12  C   UNL     1       5.410   0.262   1.873  1.00  0.00     0.000 A 
ENDBRANCH   6   7
ENDBRANCH   1   6
TORSDOF 4
ENDMDL
MODEL 3
REMARK VINA RESULT:      -7.2      0.368      1.752
REMARK SMILES O=C(O)CCc1ccccc1
REMARK SMILES IDX 4 1 2 2 1 3 3 4 5 6 6 7 7 8 11 9 8 10 10 11 9 12
REMARK H PARENT 3 5
REMARK Flexibility Score: inf
ROOT
ATOM      1  C   UNL     1       8.420  -0.635  -2.156  1.00  0.00     0.127 C 
ENDROOT
BRANCH   1   2
ATOM      2  C   UNL     1       8.410  -1.906  -2.902  1.00  0.00     0.303 C 
ATOM      3  O   UNL     1       7.305  -2.413  -3.234  1.00  0.00    -0.252 OA
BRANCH   2   4
ATOM      4  O   UNL     1       9.592  -2.572  -3.258  1.00  0.00    -0.481 OA
ATOM      5  H   UNL     1       9.529  -3.531  -3.572  1.00  0.00     0.296 HD
ENDBRANCH   2   4
ENDBRANCH   1   2
BRANCH   1   6
ATOM      6  C   UNL     1       7.056   0.033  -2.143  1.00  0.00     0.047 C 
BRANCH   6   7
ATOM      7  C   UNL     1       6.504   0.089  -0.764  1.00  0.00    -0.047 A 
ATOM      8  C   UNL     1       5.848   1.224  -0.310  1.00  0.00     0.004 A 
ATOM      9  C   UNL     1       6.617  -0.959   0.130  1.00  0.00     0.004 A 
ATOM     10  C   UNL     1       5.335   1.311   0.963  1.00  0.00     0.000 A 
ATOM     11  C   UNL     1       6.102  -0.871   1.406  1.00  0.00     0.000 A 
ATOM     12  C   UNL     1       5.454   0.260   1.849  1.00  0.00     0.000 A 
ENDBRANCH   6   7
ENDBRANCH   1   6
TORSDOF 4
ENDMDL
MODEL 4
REMARK VINA RESULT:      -7.2      0.134      1.424
REMARK SMILES O=C(O)CCc1ccccc1
REMARK SMILES IDX 4 1 2 2 1 3 3 4 5 6 6 7 7 8 11 9 8 10 10 11 9 12
REMARK H PARENT 3 5
REMARK Flexibility Score: inf
ROOT
ATOM      1  C   UNL     1       8.264  -1.064  -1.712  1.00  0.00     0.127 C 
ENDROOT
BRANCH   1   2
ATOM      2  C   UNL     1       8.361  -2.045  -2.808  1.00  0.00     0.303 C 
ATOM      3  O   UNL     1       9.494  -2.499  -3.124  1.00  0.00    -0.252 OA
BRANCH   2   4
ATOM      4  O   UNL     1       7.234  -2.494  -3.511  1.00  0.00    -0.481 OA
ATOM      5  H   UNL     1       6.974  -2.015  -4.363  1.00  0.00     0.296 HD
ENDBRANCH   2   4
ENDBRANCH   1   2
BRANCH   1   6
ATOM      6  C   UNL     1       7.160  -0.048  -1.948  1.00  0.00     0.047 C 
BRANCH   6   7
ATOM      7  C   UNL     1       6.445   0.264  -0.683  1.00  0.00    -0.047 A 
ATOM      8  C   UNL     1       5.713   1.436  -0.554  1.00  0.00     0.004 A 
ATOM      9  C   UNL     1       6.473  -0.572   0.419  1.00  0.00     0.004 A 
ATOM     10  C   UNL     1       5.049   1.758   0.607  1.00  0.00     0.000 A 
ATOM     11  C   UNL     1       5.807  -0.248   1.581  1.00  0.00     0.000 A 
ATOM     12  C   UNL     1       5.085   0.918   1.702  1.00  0.00     0.000 A 
ENDBRANCH   6   7
ENDBRANCH   1   6
TORSDOF 4
ENDMDL
MODEL 5
REMARK VINA RESULT:      -6.7      3.370      5.080
REMARK SMILES O=C(O)CCc1ccccc1
REMARK SMILES IDX 4 1 2 2 1 3 3 4 5 6 6 7 7 8 11 9 8 10 10 11 9 12
REMARK H PARENT 3 5
REMARK Flexibility Score: inf
ROOT
ATOM      1  C   UNL     1       5.042   1.724   0.743  1.00  0.00     0.127 C 
ENDROOT
BRANCH   1   2
ATOM      2  C   UNL     1       4.566   1.030   1.953  1.00  0.00     0.303 C 
ATOM      3  O   UNL     1       5.304   0.160   2.489  1.00  0.00    -0.252 OA
BRANCH   2   4
ATOM      4  O   UNL     1       3.319   1.306   2.531  1.00  0.00    -0.481 OA
ATOM      5  H   UNL     1       2.513   1.391   1.926  1.00  0.00     0.296 HD
ENDBRANCH   2   4
ENDBRANCH   1   2
BRANCH   1   6
ATOM      6  C   UNL     1       6.552   1.876   0.725  1.00  0.00     0.047 C 
BRANCH   6   7
ATOM      7  C   UNL     1       7.157   1.058  -0.358  1.00  0.00    -0.047 A 
ATOM      8  C   UNL     1       8.507   1.171  -0.661  1.00  0.00     0.004 A 
ATOM      9  C   UNL     1       6.426   0.162  -1.117  1.00  0.00     0.004 A 
ATOM     10  C   UNL     1       9.094   0.435  -1.665  1.00  0.00     0.000 A 
ATOM     11  C   UNL     1       7.016  -0.574  -2.121  1.00  0.00     0.000 A 
ATOM     12  C   UNL     1       8.355  -0.455  -2.417  1.00  0.00     0.000 A 
ENDBRANCH   6   7
ENDBRANCH   1   6
TORSDOF 4
ENDMDL
