@<TRIPOS>MOLECULE
/home/cewinharhar/GITHUB/reincatalyze/data/processed/docking_pred/2023-Apr-25-2248_maxeplen10_maxtrainstep1000_exh16_gamma099_lrac3e-4_lrcr1e-3/81487a167534eaf1a49a57d95a0bec7d9495d7bd_ligand_2.pdbqt
 12 12 0 0 0
SMALL
GASTEIGER

@<TRIPOS>ATOM
      1  C          8.2880   -0.9190   -1.7880 C.3     1  UNL1        0.1270
      2  C          8.3810   -1.9630   -2.8240 C.2     1  UNL1        0.3030
      3  O          9.5150   -2.4200   -3.1330 O.2     1  UNL1       -0.2520
      4  O          7.2490   -2.4690   -3.4800 O.3     1  UNL1       -0.4810
      5  H          7.3770   -2.9610   -4.3540 H       1  UNL1        0.2960
      6  C          7.0760   -0.0250   -1.9810 C.3     1  UNL1        0.0470
      7  C          6.4130    0.2600   -0.6830 C.2     1  UNL1       -0.0470
      8  C          6.4620   -0.6600    0.3550 C.2     1  UNL1        0.0040
      9  C          5.7140    1.4290   -0.4400 C.2     1  UNL1        0.0040
     10  C          5.8490   -0.4300    1.5650 C.2     1  UNL1        0.0000
     11  C          5.1010    1.6580    0.7730 C.2     1  UNL1        0.0000
     12  C          5.1530    0.7400    1.7970 C.2     1  UNL1        0.0000
@<TRIPOS>BOND
     1     5     4    1
     2     4     2    1
     3     3     2    2
     4     2     1    1
     5     6     1    1
     6     6     7    1
     7     7     9    2
     8     7     8    1
     9     9    11    1
    10     8    10    2
    11    11    12    2
    12    10    12    1
