@<TRIPOS>MOLECULE
/home/cewinharhar/GITHUB/reincatalyze/data/processed/docking_pred/2023-Apr-25-2248_maxeplen10_maxtrainstep1000_exh16_gamma099_lrac3e-4_lrcr1e-3/81487a167534eaf1a49a57d95a0bec7d9495d7bd_ligand_2.pdbqt
 12 12 0 0 0
SMALL
GASTEIGER

@<TRIPOS>ATOM
      1  C          8.4200   -0.6350   -2.1560 C.3     1  UNL1        0.1270
      2  C          8.4100   -1.9060   -2.9020 C.2     1  UNL1        0.3030
      3  O          7.3050   -2.4130   -3.2340 O.2     1  UNL1       -0.2520
      4  O          9.5920   -2.5720   -3.2580 O.3     1  UNL1       -0.4810
      5  H          9.5290   -3.5310   -3.5720 H       1  UNL1        0.2960
      6  C          7.0560    0.0330   -2.1430 C.3     1  UNL1        0.0470
      7  C          6.5040    0.0890   -0.7640 C.2     1  UNL1       -0.0470
      8  C          5.8480    1.2240   -0.3100 C.2     1  UNL1        0.0040
      9  C          6.6170   -0.9590    0.1300 C.2     1  UNL1        0.0040
     10  C          5.3350    1.3110    0.9630 C.2     1  UNL1        0.0000
     11  C          6.1020   -0.8710    1.4060 C.2     1  UNL1        0.0000
     12  C          5.4540    0.2600    1.8490 C.2     1  UNL1        0.0000
@<TRIPOS>BOND
     1     5     4    1
     2     4     2    1
     3     3     2    2
     4     2     1    1
     5     1     6    1
     6     6     7    1
     7     7     8    2
     8     7     9    1
     9     8    10    1
    10     9    11    2
    11    10    12    2
    12    11    12    1
