@<TRIPOS>MOLECULE
/home/cewinharhar/GITHUB/reincatalyze/data/processed/docking_pred/2023-Apr-25-2248_maxeplen10_maxtrainstep1000_exh16_gamma099_lrac3e-4_lrcr1e-3/81487a167534eaf1a49a57d95a0bec7d9495d7bd_ligand_2.pdbqt
 12 12 0 0 0
SMALL
GASTEIGER

@<TRIPOS>ATOM
      1  C          8.2640   -1.0640   -1.7120 C.3     1  UNL1        0.1270
      2  C          8.3610   -2.0450   -2.8080 C.2     1  UNL1        0.3030
      3  O          9.4940   -2.4990   -3.1240 O.2     1  UNL1       -0.2520
      4  O          7.2340   -2.4940   -3.5110 O.3     1  UNL1       -0.4810
      5  H          6.9740   -2.0150   -4.3630 H       1  UNL1        0.2960
      6  C          7.1600   -0.0480   -1.9480 C.3     1  UNL1        0.0470
      7  C          6.4450    0.2640   -0.6830 C.2     1  UNL1       -0.0470
      8  C          5.7130    1.4360   -0.5540 C.2     1  UNL1        0.0040
      9  C          6.4730   -0.5720    0.4190 C.2     1  UNL1        0.0040
     10  C          5.0490    1.7580    0.6070 C.2     1  UNL1        0.0000
     11  C          5.8070   -0.2480    1.5810 C.2     1  UNL1        0.0000
     12  C          5.0850    0.9180    1.7020 C.2     1  UNL1        0.0000
@<TRIPOS>BOND
     1     5     4    1
     2     4     2    1
     3     3     2    2
     4     2     1    1
     5     6     1    1
     6     6     7    1
     7     7     8    2
     8     7     9    1
     9     8    10    1
    10     9    11    2
    11    10    12    2
    12    11    12    1
