@<TRIPOS>MOLECULE
/home/cewinharhar/GITHUB/reincatalyze/data/processed/docking_pred/2023-Apr-25-2248_maxeplen10_maxtrainstep1000_exh16_gamma099_lrac3e-4_lrcr1e-3/82066193004a6cdbe54a2a950d109d8cafa96b54_ligand_2.pdbqt
 12 12 0 0 0
SMALL
GASTEIGER

@<TRIPOS>ATOM
      1  C          8.3850   -0.6720   -2.0970 C.3     1  UNL1        0.1270
      2  C          8.4210   -1.9230   -2.8740 C.2     1  UNL1        0.3030
      3  O          9.5220   -2.5190   -3.0230 O.2     1  UNL1       -0.2520
      4  O          7.2710   -2.4770   -3.4550 O.3     1  UNL1       -0.4810
      5  H          7.1350   -3.4770   -3.4000 H       1  UNL1        0.2960
      6  C          7.0060   -0.0370   -2.0970 C.3     1  UNL1        0.0470
      7  C          6.4620    0.0570   -0.7170 C.2     1  UNL1       -0.0470
      8  C          6.5950   -1.0020    0.1700 C.2     1  UNL1        0.0040
      9  C          5.7990    1.1760   -0.2480 C.2     1  UNL1        0.0040
     10  C          6.0940   -0.9510    1.4500 C.2     1  UNL1        0.0000
     11  C          5.2980    1.2260    1.0350 C.2     1  UNL1        0.0000
     12  C          5.4320    0.1710    1.9080 C.2     1  UNL1        0.0000
@<TRIPOS>BOND
     1     4     5    1
     2     4     2    1
     3     3     2    2
     4     2     1    1
     5     1     6    1
     6     6     7    1
     7     7     9    2
     8     7     8    1
     9     9    11    1
    10     8    10    2
    11    11    12    2
    12    10    12    1
