@<TRIPOS>MOLECULE
/home/cewinharhar/GITHUB/reincatalyze/data/processed/docking_pred/2023-Apr-25-2248_maxeplen10_maxtrainstep1000_exh16_gamma099_lrac3e-4_lrcr1e-3/82066193004a6cdbe54a2a950d109d8cafa96b54_ligand_2.pdbqt
 12 12 0 0 0
SMALL
GASTEIGER

@<TRIPOS>ATOM
      1  C          8.4040   -0.6570   -2.1250 C.3     1  UNL1        0.1270
      2  C          8.3980   -1.9140   -2.8930 C.2     1  UNL1        0.3030
      3  O          7.2940   -2.4140   -3.2410 O.2     1  UNL1       -0.2520
      4  O          9.5810   -2.5750   -3.2550 O.3     1  UNL1       -0.4810
      5  H          9.9440   -3.2880   -2.6370 H       1  UNL1        0.2960
      6  C          7.0450    0.0200   -2.1220 C.3     1  UNL1        0.0470
      7  C          6.4850    0.0860   -0.7470 C.2     1  UNL1       -0.0470
      8  C          5.8130    1.2180   -0.3090 C.2     1  UNL1        0.0040
      9  C          6.6070   -0.9500    0.1610 C.2     1  UNL1        0.0040
     10  C          5.2930    1.3140    0.9610 C.2     1  UNL1        0.0000
     11  C          6.0850   -0.8530    1.4330 C.2     1  UNL1        0.0000
     12  C          5.4210    0.2750    1.8600 C.2     1  UNL1        0.0000
@<TRIPOS>BOND
     1     4     2    1
     2     4     5    1
     3     3     2    2
     4     2     1    1
     5     1     6    1
     6     6     7    1
     7     7     8    2
     8     7     9    1
     9     8    10    1
    10     9    11    2
    11    10    12    2
    12    11    12    1
