@<TRIPOS>MOLECULE
/home/cewinharhar/GITHUB/reincatalyze/data/processed/docking_pred/2023-Apr-25-2248_maxeplen10_maxtrainstep1000_exh16_gamma099_lrac3e-4_lrcr1e-3/82066193004a6cdbe54a2a950d109d8cafa96b54_ligand_2.pdbqt
 12 12 0 0 0
SMALL
GASTEIGER

@<TRIPOS>ATOM
      1  C          8.2350    0.1910   -2.1780 C.3     1  UNL1        0.1270
      2  C          9.3480    0.3770   -1.2310 C.2     1  UNL1        0.3030
      3  O          9.4220   -0.3710   -0.2190 O.2     1  UNL1       -0.2520
      4  O         10.3320    1.3600   -1.4160 O.3     1  UNL1       -0.4810
      5  H         11.2500    1.2050   -1.0210 H       1  UNL1        0.2960
      6  C          7.0840   -0.5850   -1.5660 C.3     1  UNL1        0.0470
      7  C          6.3120    0.2640   -0.6210 C.2     1  UNL1       -0.0470
      8  C          5.7990    1.4880   -1.0260 C.2     1  UNL1        0.0040
      9  C          6.0730   -0.1030    0.6910 C.2     1  UNL1        0.0040
     10  C          5.0900    2.3020   -0.1720 C.2     1  UNL1        0.0000
     11  C          5.3630    0.7130    1.5450 C.2     1  UNL1        0.0000
     12  C          4.8580    1.9270    1.1360 C.2     1  UNL1        0.0000
@<TRIPOS>BOND
     1     1     6    1
     2     1     2    1
     3     6     7    1
     4     4     2    1
     5     4     5    1
     6     2     3    2
     7     8     7    2
     8     8    10    1
     9     7     9    1
    10    10    12    2
    11     9    11    2
    12    12    11    1
