MODEL 1
REMARK VINA RESULT:      -7.3      0.000      0.000
REMARK SMILES O=C(O)CCc1ccccc1
REMARK SMILES IDX 4 1 2 2 1 3 3 4 5 6 6 7 7 8 11 9 8 10 10 11 9 12
REMARK H PARENT 3 5
REMARK Flexibility Score: inf
ROOT
ATOM      1  C   UNL     1       8.385  -0.672  -2.097  1.00  0.00     0.127 C 
ENDROOT
BRANCH   1   2
ATOM      2  C   UNL     1       8.421  -1.923  -2.874  1.00  0.00     0.303 C 
ATOM      3  O   UNL     1       9.522  -2.519  -3.023  1.00  0.00    -0.252 OA
BRANCH   2   4
ATOM      4  O   UNL     1       7.271  -2.477  -3.455  1.00  0.00    -0.481 OA
ATOM      5  H   UNL     1       7.135  -3.477  -3.400  1.00  0.00     0.296 HD
ENDBRANCH   2   4
ENDBRANCH   1   2
BRANCH   1   6
ATOM      6  C   UNL     1       7.006  -0.037  -2.097  1.00  0.00     0.047 C 
BRANCH   6   7
ATOM      7  C   UNL     1       6.462   0.057  -0.717  1.00  0.00    -0.047 A 
ATOM      8  C   UNL     1       6.595  -1.002   0.170  1.00  0.00     0.004 A 
ATOM      9  C   UNL     1       5.799   1.176  -0.248  1.00  0.00     0.004 A 
ATOM     10  C   UNL     1       6.094  -0.951   1.450  1.00  0.00     0.000 A 
ATOM     11  C   UNL     1       5.298   1.226   1.035  1.00  0.00     0.000 A 
ATOM     12  C   UNL     1       5.432   0.171   1.908  1.00  0.00     0.000 A 
ENDBRANCH   6   7
ENDBRANCH   1   6
TORSDOF 4
ENDMDL
MODEL 2
REMARK VINA RESULT:      -7.3      0.123      1.723
REMARK SMILES O=C(O)CCc1ccccc1
REMARK SMILES IDX 4 1 2 2 1 3 3 4 5 6 6 7 7 8 11 9 8 10 10 11 9 12
REMARK H PARENT 3 5
REMARK Flexibility Score: inf
ROOT
ATOM      1  C   UNL     1       8.404  -0.657  -2.125  1.00  0.00     0.127 C 
ENDROOT
BRANCH   1   2
ATOM      2  C   UNL     1       8.398  -1.914  -2.893  1.00  0.00     0.303 C 
ATOM      3  O   UNL     1       7.294  -2.414  -3.241  1.00  0.00    -0.252 OA
BRANCH   2   4
ATOM      4  O   UNL     1       9.581  -2.575  -3.255  1.00  0.00    -0.481 OA
ATOM      5  H   UNL     1       9.944  -3.288  -2.637  1.00  0.00     0.296 HD
ENDBRANCH   2   4
ENDBRANCH   1   2
BRANCH   1   6
ATOM      6  C   UNL     1       7.045   0.020  -2.122  1.00  0.00     0.047 C 
BRANCH   6   7
ATOM      7  C   UNL     1       6.485   0.086  -0.747  1.00  0.00    -0.047 A 
ATOM      8  C   UNL     1       5.813   1.218  -0.309  1.00  0.00     0.004 A 
ATOM      9  C   UNL     1       6.607  -0.950   0.161  1.00  0.00     0.004 A 
ATOM     10  C   UNL     1       5.293   1.314   0.961  1.00  0.00     0.000 A 
ATOM     11  C   UNL     1       6.085  -0.853   1.433  1.00  0.00     0.000 A 
ATOM     12  C   UNL     1       5.421   0.275   1.860  1.00  0.00     0.000 A 
ENDBRANCH   6   7
ENDBRANCH   1   6
TORSDOF 4
ENDMDL
MODEL 3
REMARK VINA RESULT:      -7.1      0.681      1.635
REMARK SMILES O=C(O)CCc1ccccc1
REMARK SMILES IDX 4 1 2 2 1 3 3 4 5 6 6 7 7 8 11 9 8 10 10 11 9 12
REMARK H PARENT 3 5
REMARK Flexibility Score: inf
ROOT
ATOM      1  C   UNL     1       8.246  -0.868  -1.962  1.00  0.00     0.127 C 
ENDROOT
BRANCH   1   2
ATOM      2  C   UNL     1       8.385  -2.018  -2.874  1.00  0.00     0.303 C 
ATOM      3  O   UNL     1       9.527  -2.518  -3.059  1.00  0.00    -0.252 OA
BRANCH   2   4
ATOM      4  O   UNL     1       7.288  -2.578  -3.544  1.00  0.00    -0.481 OA
ATOM      5  H   UNL     1       6.432  -2.730  -3.027  1.00  0.00     0.296 HD
ENDBRANCH   2   4
ENDBRANCH   1   2
BRANCH   1   6
ATOM      6  C   UNL     1       7.717  -1.278  -0.599  1.00  0.00     0.047 C 
BRANCH   6   7
ATOM      7  C   UNL     1       6.757  -0.272  -0.076  1.00  0.00    -0.047 A 
ATOM      8  C   UNL     1       6.354   0.798  -0.862  1.00  0.00     0.004 A 
ATOM      9  C   UNL     1       6.227  -0.335   1.200  1.00  0.00     0.004 A 
ATOM     10  C   UNL     1       5.474   1.752  -0.403  1.00  0.00     0.000 A 
ATOM     11  C   UNL     1       5.346   0.620   1.658  1.00  0.00     0.000 A 
ATOM     12  C   UNL     1       4.952   1.680   0.872  1.00  0.00     0.000 A 
ENDBRANCH   6   7
ENDBRANCH   1   6
TORSDOF 4
ENDMDL
MODEL 4
REMARK VINA RESULT:      -6.8      3.407      5.095
REMARK SMILES O=C(O)CCc1ccccc1
REMARK SMILES IDX 4 1 2 2 1 3 3 4 5 6 6 7 7 8 11 9 8 10 10 11 9 12
REMARK H PARENT 3 5
REMARK Flexibility Score: inf
ROOT
ATOM      1  C   UNL     1       4.998   1.790   0.720  1.00  0.00     0.127 C 
ENDROOT
BRANCH   1   2
ATOM      2  C   UNL     1       4.480   1.123   1.928  1.00  0.00     0.303 C 
ATOM      3  O   UNL     1       5.179   0.233   2.483  1.00  0.00    -0.252 OA
BRANCH   2   4
ATOM      4  O   UNL     1       3.234   1.446   2.483  1.00  0.00    -0.481 OA
ATOM      5  H   UNL     1       2.566   0.702   2.638  1.00  0.00     0.296 HD
ENDBRANCH   2   4
ENDBRANCH   1   2
BRANCH   1   6
ATOM      6  C   UNL     1       6.511   1.917   0.739  1.00  0.00     0.047 C 
BRANCH   6   7
ATOM      7  C   UNL     1       7.128   1.094  -0.333  1.00  0.00    -0.047 A 
ATOM      8  C   UNL     1       8.473   1.234  -0.647  1.00  0.00     0.004 A 
ATOM      9  C   UNL     1       6.414   0.170  -1.072  1.00  0.00     0.004 A 
ATOM     10  C   UNL     1       9.072   0.494  -1.641  1.00  0.00     0.000 A 
ATOM     11  C   UNL     1       7.015  -0.570  -2.068  1.00  0.00     0.000 A 
ATOM     12  C   UNL     1       8.349  -0.425  -2.374  1.00  0.00     0.000 A 
ENDBRANCH   6   7
ENDBRANCH   1   6
TORSDOF 4
ENDMDL
MODEL 5
REMARK VINA RESULT:      -6.6      1.972      2.708
REMARK SMILES O=C(O)CCc1ccccc1
REMARK SMILES IDX 4 1 2 2 1 3 3 4 5 6 6 7 7 8 11 9 8 10 10 11 9 12
REMARK H PARENT 3 5
REMARK Flexibility Score: inf
ROOT
ATOM      1  C   UNL     1       8.235   0.191  -2.178  1.00  0.00     0.127 C 
ENDROOT
BRANCH   1   2
ATOM      2  C   UNL     1       9.348   0.377  -1.231  1.00  0.00     0.303 C 
ATOM      3  O   UNL     1       9.422  -0.371  -0.219  1.00  0.00    -0.252 OA
BRANCH   2   4
ATOM      4  O   UNL     1      10.332   1.360  -1.416  1.00  0.00    -0.481 OA
ATOM      5  H   UNL     1      11.250   1.205  -1.021  1.00  0.00     0.296 HD
ENDBRANCH   2   4
ENDBRANCH   1   2
BRANCH   1   6
ATOM      6  C   UNL     1       7.084  -0.585  -1.566  1.00  0.00     0.047 C 
BRANCH   6   7
ATOM      7  C   UNL     1       6.312   0.264  -0.621  1.00  0.00    -0.047 A 
ATOM      8  C   UNL     1       5.799   1.488  -1.026  1.00  0.00     0.004 A 
ATOM      9  C   UNL     1       6.073  -0.103   0.691  1.00  0.00     0.004 A 
ATOM     10  C   UNL     1       5.090   2.302  -0.172  1.00  0.00     0.000 A 
ATOM     11  C   UNL     1       5.363   0.713   1.545  1.00  0.00     0.000 A 
ATOM     12  C   UNL     1       4.858   1.927   1.136  1.00  0.00     0.000 A 
ENDBRANCH   6   7
ENDBRANCH   1   6
TORSDOF 4
ENDMDL
