@<TRIPOS>MOLECULE
/home/cewinharhar/GITHUB/reincatalyze/data/processed/docking_pred/2023-Apr-25-2248_maxeplen10_maxtrainstep1000_exh16_gamma099_lrac3e-4_lrcr1e-3/82066193004a6cdbe54a2a950d109d8cafa96b54_ligand_2.pdbqt
 12 12 0 0 0
SMALL
GASTEIGER

@<TRIPOS>ATOM
      1  C          8.2460   -0.8680   -1.9620 C.3     1  UNL1        0.1270
      2  C          8.3850   -2.0180   -2.8740 C.2     1  UNL1        0.3030
      3  O          9.5270   -2.5180   -3.0590 O.2     1  UNL1       -0.2520
      4  O          7.2880   -2.5780   -3.5440 O.3     1  UNL1       -0.4810
      5  H          6.4320   -2.7300   -3.0270 H       1  UNL1        0.2960
      6  C          7.7170   -1.2780   -0.5990 C.3     1  UNL1        0.0470
      7  C          6.7570   -0.2720   -0.0760 C.2     1  UNL1       -0.0470
      8  C          6.3540    0.7980   -0.8620 C.2     1  UNL1        0.0040
      9  C          6.2270   -0.3350    1.2000 C.2     1  UNL1        0.0040
     10  C          5.4740    1.7520   -0.4030 C.2     1  UNL1        0.0000
     11  C          5.3460    0.6200    1.6580 C.2     1  UNL1        0.0000
     12  C          4.9520    1.6800    0.8720 C.2     1  UNL1        0.0000
@<TRIPOS>BOND
     1     4     5    1
     2     4     2    1
     3     3     2    2
     4     2     1    1
     5     1     6    1
     6     8    10    1
     7     8     7    2
     8     6     7    1
     9    10    12    2
    10     7     9    1
    11    12    11    1
    12     9    11    2
