@<TRIPOS>MOLECULE
/home/cewinharhar/GITHUB/reincatalyze/data/processed/docking_pred/2023-Apr-25-2248_maxeplen10_maxtrainstep1000_exh16_gamma099_lrac3e-4_lrcr1e-3/82066193004a6cdbe54a2a950d109d8cafa96b54_ligand_2.pdbqt
 12 12 0 0 0
SMALL
GASTEIGER

@<TRIPOS>ATOM
      1  C          4.9980    1.7900    0.7200 C.3     1  UNL1        0.1270
      2  C          4.4800    1.1230    1.9280 C.2     1  UNL1        0.3030
      3  O          5.1790    0.2330    2.4830 O.2     1  UNL1       -0.2520
      4  O          3.2340    1.4460    2.4830 O.3     1  UNL1       -0.4810
      5  H          2.5660    0.7020    2.6380 H       1  UNL1        0.2960
      6  C          6.5110    1.9170    0.7390 C.3     1  UNL1        0.0470
      7  C          7.1280    1.0940   -0.3330 C.2     1  UNL1       -0.0470
      8  C          8.4730    1.2340   -0.6470 C.2     1  UNL1        0.0040
      9  C          6.4140    0.1700   -1.0720 C.2     1  UNL1        0.0040
     10  C          9.0720    0.4940   -1.6410 C.2     1  UNL1        0.0000
     11  C          7.0150   -0.5700   -2.0680 C.2     1  UNL1        0.0000
     12  C          8.3490   -0.4250   -2.3740 C.2     1  UNL1        0.0000
@<TRIPOS>BOND
     1    12    11    2
     2    12    10    1
     3    11     9    1
     4    10     8    2
     5     9     7    2
     6     8     7    1
     7     7     6    1
     8     1     6    1
     9     1     2    1
    10     2     3    2
    11     2     4    1
    12     4     5    1
