MODEL 1
REMARK VINA RESULT:      -7.3      0.000      0.000
REMARK SMILES O=C(O)CCc1ccccc1
REMARK SMILES IDX 4 1 2 2 1 3 3 4 5 6 6 7 7 8 11 9 8 10 10 11 9 12
REMARK H PARENT 3 5
REMARK Flexibility Score: inf
ROOT
ATOM      1  C   UNL     1       8.391  -0.582  -2.215  1.00  0.00     0.127 C 
ENDROOT
BRANCH   1   2
ATOM      2  C   UNL     1       8.425  -1.872  -2.926  1.00  0.00     0.303 C 
ATOM      3  O   UNL     1       9.532  -2.454  -3.087  1.00  0.00    -0.252 OA
BRANCH   2   4
ATOM      4  O   UNL     1       7.265  -2.479  -3.430  1.00  0.00    -0.481 OA
ATOM      5  H   UNL     1       6.518  -2.703  -2.787  1.00  0.00     0.296 HD
ENDBRANCH   2   4
ENDBRANCH   1   2
BRANCH   1   6
ATOM      6  C   UNL     1       6.994   0.012  -2.169  1.00  0.00     0.047 C 
BRANCH   6   7
ATOM      7  C   UNL     1       6.482   0.059  -0.774  1.00  0.00    -0.047 A 
ATOM      8  C   UNL     1       5.853   1.197  -0.290  1.00  0.00     0.004 A 
ATOM      9  C   UNL     1       6.607  -1.000   0.106  1.00  0.00     0.004 A 
ATOM     10  C   UNL     1       5.377   1.277   0.998  1.00  0.00     0.000 A 
ATOM     11  C   UNL     1       6.130  -0.919   1.396  1.00  0.00     0.000 A 
ATOM     12  C   UNL     1       5.508   0.214   1.870  1.00  0.00     0.000 A 
ENDBRANCH   6   7
ENDBRANCH   1   6
TORSDOF 4
ENDMDL
MODEL 2
REMARK VINA RESULT:      -7.3      0.106      1.724
REMARK SMILES O=C(O)CCc1ccccc1
REMARK SMILES IDX 4 1 2 2 1 3 3 4 5 6 6 7 7 8 11 9 8 10 10 11 9 12
REMARK H PARENT 3 5
REMARK Flexibility Score: inf
ROOT
ATOM      1  C   UNL     1       8.380  -0.629  -2.149  1.00  0.00     0.127 C 
ENDROOT
BRANCH   1   2
ATOM      2  C   UNL     1       8.393  -1.900  -2.896  1.00  0.00     0.303 C 
ATOM      3  O   UNL     1       7.297  -2.418  -3.242  1.00  0.00    -0.252 OA
BRANCH   2   4
ATOM      4  O   UNL     1       9.585  -2.553  -3.239  1.00  0.00    -0.481 OA
ATOM      5  H   UNL     1       9.895  -2.522  -4.201  1.00  0.00     0.296 HD
ENDBRANCH   2   4
ENDBRANCH   1   2
BRANCH   1   6
ATOM      6  C   UNL     1       7.009   0.023  -2.151  1.00  0.00     0.047 C 
BRANCH   6   7
ATOM      7  C   UNL     1       6.468   0.129  -0.770  1.00  0.00    -0.047 A 
ATOM      8  C   UNL     1       6.612  -0.919   0.128  1.00  0.00     0.004 A 
ATOM      9  C   UNL     1       5.796   1.247  -0.314  1.00  0.00     0.004 A 
ATOM     10  C   UNL     1       6.113  -0.856   1.409  1.00  0.00     0.000 A 
ATOM     11  C   UNL     1       5.297   1.309   0.970  1.00  0.00     0.000 A 
ATOM     12  C   UNL     1       5.443   0.265   1.855  1.00  0.00     0.000 A 
ENDBRANCH   6   7
ENDBRANCH   1   6
TORSDOF 4
ENDMDL
MODEL 3
REMARK VINA RESULT:      -6.8      3.390      5.065
REMARK SMILES O=C(O)CCc1ccccc1
REMARK SMILES IDX 4 1 2 2 1 3 3 4 5 6 6 7 7 8 11 9 8 10 10 11 9 12
REMARK H PARENT 3 5
REMARK Flexibility Score: inf
ROOT
ATOM      1  C   UNL     1       4.988   1.787   0.723  1.00  0.00     0.127 C 
ENDROOT
BRANCH   1   2
ATOM      2  C   UNL     1       4.463   1.112   1.923  1.00  0.00     0.303 C 
ATOM      3  O   UNL     1       5.149   0.201   2.461  1.00  0.00    -0.252 OA
BRANCH   2   4
ATOM      4  O   UNL     1       3.225   1.448   2.489  1.00  0.00    -0.481 OA
ATOM      5  H   UNL     1       3.216   1.939   3.373  1.00  0.00     0.296 HD
ENDBRANCH   2   4
ENDBRANCH   1   2
BRANCH   1   6
ATOM      6  C   UNL     1       6.501   1.906   0.746  1.00  0.00     0.047 C 
BRANCH   6   7
ATOM      7  C   UNL     1       7.117   1.092  -0.334  1.00  0.00    -0.047 A 
ATOM      8  C   UNL     1       8.462   1.230  -0.646  1.00  0.00     0.004 A 
ATOM      9  C   UNL     1       6.399   0.177  -1.083  1.00  0.00     0.004 A 
ATOM     10  C   UNL     1       9.058   0.499  -1.647  1.00  0.00     0.000 A 
ATOM     11  C   UNL     1       6.998  -0.554  -2.086  1.00  0.00     0.000 A 
ATOM     12  C   UNL     1       8.333  -0.411  -2.390  1.00  0.00     0.000 A 
ENDBRANCH   6   7
ENDBRANCH   1   6
TORSDOF 4
ENDMDL
MODEL 4
REMARK VINA RESULT:      -6.6      1.954      2.367
REMARK SMILES O=C(O)CCc1ccccc1
REMARK SMILES IDX 4 1 2 2 1 3 3 4 5 6 6 7 7 8 11 9 8 10 10 11 9 12
REMARK H PARENT 3 5
REMARK Flexibility Score: inf
ROOT
ATOM      1  C   UNL     1       8.297   0.221  -2.185  1.00  0.00     0.127 C 
ENDROOT
BRANCH   1   2
ATOM      2  C   UNL     1       9.417   0.364  -1.238  1.00  0.00     0.303 C 
ATOM      3  O   UNL     1       9.466  -0.391  -0.229  1.00  0.00    -0.252 OA
BRANCH   2   4
ATOM      4  O   UNL     1      10.435   1.312  -1.420  1.00  0.00    -0.481 OA
ATOM      5  H   UNL     1      10.175   2.278  -1.564  1.00  0.00     0.296 HD
ENDBRANCH   2   4
ENDBRANCH   1   2
BRANCH   1   6
ATOM      6  C   UNL     1       7.152  -0.586  -1.601  1.00  0.00     0.047 C 
BRANCH   6   7
ATOM      7  C   UNL     1       6.363   0.226  -0.639  1.00  0.00    -0.047 A 
ATOM      8  C   UNL     1       5.827   1.449  -1.018  1.00  0.00     0.004 A 
ATOM      9  C   UNL     1       6.129  -0.174   0.664  1.00  0.00     0.004 A 
ATOM     10  C   UNL     1       5.101   2.229  -0.148  1.00  0.00     0.000 A 
ATOM     11  C   UNL     1       5.402   0.609   1.534  1.00  0.00     0.000 A 
ATOM     12  C   UNL     1       4.875   1.822   1.151  1.00  0.00     0.000 A 
ENDBRANCH   6   7
ENDBRANCH   1   6
TORSDOF 4
ENDMDL
MODEL 5
REMARK VINA RESULT:      -6.6      1.884      2.884
REMARK SMILES O=C(O)CCc1ccccc1
REMARK SMILES IDX 4 1 2 2 1 3 3 4 5 6 6 7 7 8 11 9 8 10 10 11 9 12
REMARK H PARENT 3 5
REMARK Flexibility Score: inf
ROOT
ATOM      1  C   UNL     1       8.147  -1.661   1.176  1.00  0.00     0.127 C 
ENDROOT
BRANCH   1   2
ATOM      2  C   UNL     1       8.490  -2.821   0.336  1.00  0.00     0.303 C 
ATOM      3  O   UNL     1       9.176  -3.756   0.833  1.00  0.00    -0.252 OA
BRANCH   2   4
ATOM      4  O   UNL     1       8.079  -2.925  -1.001  1.00  0.00    -0.481 OA
ATOM      5  H   UNL     1       7.564  -3.747  -1.286  1.00  0.00     0.296 HD
ENDBRANCH   2   4
ENDBRANCH   1   2
BRANCH   1   6
ATOM      6  C   UNL     1       6.648  -1.521   1.377  1.00  0.00     0.047 C 
BRANCH   6   7
ATOM      7  C   UNL     1       6.151  -0.242   0.806  1.00  0.00    -0.047 A 
ATOM      8  C   UNL     1       5.391   0.627   1.575  1.00  0.00     0.004 A 
ATOM      9  C   UNL     1       6.403   0.143  -0.498  1.00  0.00     0.004 A 
ATOM     10  C   UNL     1       4.907   1.814   1.073  1.00  0.00     0.000 A 
ATOM     11  C   UNL     1       5.918   1.332  -0.999  1.00  0.00     0.000 A 
ATOM     12  C   UNL     1       5.163   2.189  -0.231  1.00  0.00     0.000 A 
ENDBRANCH   6   7
ENDBRANCH   1   6
TORSDOF 4
ENDMDL
