@<TRIPOS>MOLECULE
/home/cewinharhar/GITHUB/reincatalyze/data/processed/docking_pred/2023-Apr-25-2248_maxeplen10_maxtrainstep1000_exh16_gamma099_lrac3e-4_lrcr1e-3/84f6a015bafc2578e701aafee66be27aa4cb1192_ligand_2.pdbqt
 12 12 0 0 0
SMALL
GASTEIGER

@<TRIPOS>ATOM
      1  C          8.2970    0.2210   -2.1850 C.3     1  UNL1        0.1270
      2  C          9.4170    0.3640   -1.2380 C.2     1  UNL1        0.3030
      3  O          9.4660   -0.3910   -0.2290 O.2     1  UNL1       -0.2520
      4  O         10.4350    1.3120   -1.4200 O.3     1  UNL1       -0.4810
      5  H         10.1750    2.2780   -1.5640 H       1  UNL1        0.2960
      6  C          7.1520   -0.5860   -1.6010 C.3     1  UNL1        0.0470
      7  C          6.3630    0.2260   -0.6390 C.2     1  UNL1       -0.0470
      8  C          5.8270    1.4490   -1.0180 C.2     1  UNL1        0.0040
      9  C          6.1290   -0.1740    0.6640 C.2     1  UNL1        0.0040
     10  C          5.1010    2.2290   -0.1480 C.2     1  UNL1        0.0000
     11  C          5.4020    0.6090    1.5340 C.2     1  UNL1        0.0000
     12  C          4.8750    1.8220    1.1510 C.2     1  UNL1        0.0000
@<TRIPOS>BOND
     1     1     6    1
     2     1     2    1
     3     6     7    1
     4     5     4    1
     5     4     2    1
     6     2     3    2
     7     8     7    2
     8     8    10    1
     9     7     9    1
    10    10    12    2
    11     9    11    2
    12    12    11    1
