@<TRIPOS>MOLECULE
/home/cewinharhar/GITHUB/reincatalyze/data/processed/docking_pred/2023-Apr-25-2248_maxeplen10_maxtrainstep1000_exh16_gamma099_lrac3e-4_lrcr1e-3/84f6a015bafc2578e701aafee66be27aa4cb1192_ligand_2.pdbqt
 12 12 0 0 0
SMALL
GASTEIGER

@<TRIPOS>ATOM
      1  C          4.9880    1.7870    0.7230 C.3     1  UNL1        0.1270
      2  C          4.4630    1.1120    1.9230 C.2     1  UNL1        0.3030
      3  O          5.1490    0.2010    2.4610 O.2     1  UNL1       -0.2520
      4  O          3.2250    1.4480    2.4890 O.3     1  UNL1       -0.4810
      5  H          3.2160    1.9390    3.3730 H       1  UNL1        0.2960
      6  C          6.5010    1.9060    0.7460 C.3     1  UNL1        0.0470
      7  C          7.1170    1.0920   -0.3340 C.2     1  UNL1       -0.0470
      8  C          8.4620    1.2300   -0.6460 C.2     1  UNL1        0.0040
      9  C          6.3990    0.1770   -1.0830 C.2     1  UNL1        0.0040
     10  C          9.0580    0.4990   -1.6470 C.2     1  UNL1        0.0000
     11  C          6.9980   -0.5540   -2.0860 C.2     1  UNL1        0.0000
     12  C          8.3330   -0.4110   -2.3900 C.2     1  UNL1        0.0000
@<TRIPOS>BOND
     1    12    11    2
     2    12    10    1
     3    11     9    1
     4    10     8    2
     5     9     7    2
     6     8     7    1
     7     7     6    1
     8     1     6    1
     9     1     2    1
    10     2     3    2
    11     2     4    1
    12     4     5    1
