@<TRIPOS>MOLECULE
/home/cewinharhar/GITHUB/reincatalyze/data/processed/docking_pred/2023-Apr-25-2248_maxeplen10_maxtrainstep1000_exh16_gamma099_lrac3e-4_lrcr1e-3/84f6a015bafc2578e701aafee66be27aa4cb1192_ligand_2.pdbqt
 12 12 0 0 0
SMALL
GASTEIGER

@<TRIPOS>ATOM
      1  C          8.3910   -0.5820   -2.2150 C.3     1  UNL1        0.1270
      2  C          8.4250   -1.8720   -2.9260 C.2     1  UNL1        0.3030
      3  O          9.5320   -2.4540   -3.0870 O.2     1  UNL1       -0.2520
      4  O          7.2650   -2.4790   -3.4300 O.3     1  UNL1       -0.4810
      5  H          6.5180   -2.7030   -2.7870 H       1  UNL1        0.2960
      6  C          6.9940    0.0120   -2.1690 C.3     1  UNL1        0.0470
      7  C          6.4820    0.0590   -0.7740 C.2     1  UNL1       -0.0470
      8  C          5.8530    1.1970   -0.2900 C.2     1  UNL1        0.0040
      9  C          6.6070   -1.0000    0.1060 C.2     1  UNL1        0.0040
     10  C          5.3770    1.2770    0.9980 C.2     1  UNL1        0.0000
     11  C          6.1300   -0.9190    1.3960 C.2     1  UNL1        0.0000
     12  C          5.5080    0.2140    1.8700 C.2     1  UNL1        0.0000
@<TRIPOS>BOND
     1     4     2    1
     2     4     5    1
     3     3     2    2
     4     2     1    1
     5     1     6    1
     6     6     7    1
     7     7     8    2
     8     7     9    1
     9     8    10    1
    10     9    11    2
    11    10    12    2
    12    11    12    1
