@<TRIPOS>MOLECULE
/home/cewinharhar/GITHUB/reincatalyze/data/processed/docking_pred/2023-Apr-25-2248_maxeplen10_maxtrainstep1000_exh16_gamma099_lrac3e-4_lrcr1e-3/84f6a015bafc2578e701aafee66be27aa4cb1192_ligand_2.pdbqt
 12 12 0 0 0
SMALL
GASTEIGER

@<TRIPOS>ATOM
      1  C          8.3800   -0.6290   -2.1490 C.3     1  UNL1        0.1270
      2  C          8.3930   -1.9000   -2.8960 C.2     1  UNL1        0.3030
      3  O          7.2970   -2.4180   -3.2420 O.2     1  UNL1       -0.2520
      4  O          9.5850   -2.5530   -3.2390 O.3     1  UNL1       -0.4810
      5  H          9.8950   -2.5220   -4.2010 H       1  UNL1        0.2960
      6  C          7.0090    0.0230   -2.1510 C.3     1  UNL1        0.0470
      7  C          6.4680    0.1290   -0.7700 C.2     1  UNL1       -0.0470
      8  C          6.6120   -0.9190    0.1280 C.2     1  UNL1        0.0040
      9  C          5.7960    1.2470   -0.3140 C.2     1  UNL1        0.0040
     10  C          6.1130   -0.8560    1.4090 C.2     1  UNL1        0.0000
     11  C          5.2970    1.3090    0.9700 C.2     1  UNL1        0.0000
     12  C          5.4430    0.2650    1.8550 C.2     1  UNL1        0.0000
@<TRIPOS>BOND
     1     5     4    1
     2     3     2    2
     3     4     2    1
     4     2     1    1
     5     6     1    1
     6     6     7    1
     7     7     9    2
     8     7     8    1
     9     9    11    1
    10     8    10    2
    11    11    12    2
    12    10    12    1
