@<TRIPOS>MOLECULE
/home/cewinharhar/GITHUB/reincatalyze/data/processed/docking_pred/2023-Apr-25-2248_maxeplen10_maxtrainstep1000_exh16_gamma099_lrac3e-4_lrcr1e-3/84f6a015bafc2578e701aafee66be27aa4cb1192_ligand_2.pdbqt
 12 12 0 0 0
SMALL
GASTEIGER

@<TRIPOS>ATOM
      1  C          8.1470   -1.6610    1.1760 C.3     1  UNL1        0.1270
      2  C          8.4900   -2.8210    0.3360 C.2     1  UNL1        0.3030
      3  O          9.1760   -3.7560    0.8330 O.2     1  UNL1       -0.2520
      4  O          8.0790   -2.9250   -1.0010 O.3     1  UNL1       -0.4810
      5  H          7.5640   -3.7470   -1.2860 H       1  UNL1        0.2960
      6  C          6.6480   -1.5210    1.3770 C.3     1  UNL1        0.0470
      7  C          6.1510   -0.2420    0.8060 C.2     1  UNL1       -0.0470
      8  C          5.3910    0.6270    1.5750 C.2     1  UNL1        0.0040
      9  C          6.4030    0.1430   -0.4980 C.2     1  UNL1        0.0040
     10  C          4.9070    1.8140    1.0730 C.2     1  UNL1        0.0000
     11  C          5.9180    1.3320   -0.9990 C.2     1  UNL1        0.0000
     12  C          5.1630    2.1890   -0.2310 C.2     1  UNL1        0.0000
@<TRIPOS>BOND
     1     5     4    1
     2     4     2    1
     3    11     9    1
     4    11    12    2
     5     9     7    2
     6    12    10    1
     7     2     3    2
     8     2     1    1
     9     7     6    1
    10     7     8    1
    11    10     8    2
    12     1     6    1
