MODEL 1
REMARK VINA RESULT:      -7.3      0.000      0.000
REMARK SMILES O=C(O)CCc1ccccc1
REMARK SMILES IDX 4 1 2 2 1 3 3 4 5 6 6 7 7 8 11 9 8 10 10 11 9 12
REMARK H PARENT 3 5
REMARK Flexibility Score: inf
ROOT
ATOM      1  C   UNL     1       8.392  -0.619  -2.179  1.00  0.00     0.127 C 
ENDROOT
BRANCH   1   2
ATOM      2  C   UNL     1       8.431  -1.897  -2.911  1.00  0.00     0.303 C 
ATOM      3  O   UNL     1       9.538  -2.478  -3.071  1.00  0.00    -0.252 OA
BRANCH   2   4
ATOM      4  O   UNL     1       7.275  -2.492  -3.438  1.00  0.00    -0.481 OA
ATOM      5  H   UNL     1       6.605  -2.896  -2.798  1.00  0.00     0.296 HD
ENDBRANCH   2   4
ENDBRANCH   1   2
BRANCH   1   6
ATOM      6  C   UNL     1       7.004  -0.004  -2.169  1.00  0.00     0.047 C 
BRANCH   6   7
ATOM      7  C   UNL     1       6.476   0.098  -0.783  1.00  0.00    -0.047 A 
ATOM      8  C   UNL     1       6.611  -0.959   0.105  1.00  0.00     0.004 A 
ATOM      9  C   UNL     1       5.825   1.223  -0.311  1.00  0.00     0.004 A 
ATOM     10  C   UNL     1       6.124  -0.900   1.391  1.00  0.00     0.000 A 
ATOM     11  C   UNL     1       5.338   1.281   0.977  1.00  0.00     0.000 A 
ATOM     12  C   UNL     1       5.475   0.228   1.852  1.00  0.00     0.000 A 
ENDBRANCH   6   7
ENDBRANCH   1   6
TORSDOF 4
ENDMDL
MODEL 2
REMARK VINA RESULT:      -7.2      0.095      1.723
REMARK SMILES O=C(O)CCc1ccccc1
REMARK SMILES IDX 4 1 2 2 1 3 3 4 5 6 6 7 7 8 11 9 8 10 10 11 9 12
REMARK H PARENT 3 5
REMARK Flexibility Score: inf
ROOT
ATOM      1  C   UNL     1       8.398  -0.605  -2.190  1.00  0.00     0.127 C 
ENDROOT
BRANCH   1   2
ATOM      2  C   UNL     1       8.414  -1.899  -2.895  1.00  0.00     0.303 C 
ATOM      3  O   UNL     1       7.318  -2.433  -3.218  1.00  0.00    -0.252 OA
BRANCH   2   4
ATOM      4  O   UNL     1       9.608  -2.558  -3.221  1.00  0.00    -0.481 OA
ATOM      5  H   UNL     1       9.563  -3.527  -3.504  1.00  0.00     0.296 HD
ENDBRANCH   2   4
ENDBRANCH   1   2
BRANCH   1   6
ATOM      6  C   UNL     1       7.010   0.010  -2.150  1.00  0.00     0.047 C 
BRANCH   6   7
ATOM      7  C   UNL     1       6.488   0.057  -0.759  1.00  0.00    -0.047 A 
ATOM      8  C   UNL     1       5.849   1.192  -0.281  1.00  0.00     0.004 A 
ATOM      9  C   UNL     1       6.613  -1.001   0.123  1.00  0.00     0.004 A 
ATOM     10  C   UNL     1       5.364   1.270   1.004  1.00  0.00     0.000 A 
ATOM     11  C   UNL     1       6.126  -0.921   1.410  1.00  0.00     0.000 A 
ATOM     12  C   UNL     1       5.495   0.209   1.878  1.00  0.00     0.000 A 
ENDBRANCH   6   7
ENDBRANCH   1   6
TORSDOF 4
ENDMDL
MODEL 3
REMARK VINA RESULT:      -7.1      0.689      1.580
REMARK SMILES O=C(O)CCc1ccccc1
REMARK SMILES IDX 4 1 2 2 1 3 3 4 5 6 6 7 7 8 11 9 8 10 10 11 9 12
REMARK H PARENT 3 5
REMARK Flexibility Score: inf
ROOT
ATOM      1  C   UNL     1       8.322  -1.026  -1.764  1.00  0.00     0.127 C 
ENDROOT
BRANCH   1   2
ATOM      2  C   UNL     1       8.351  -2.046  -2.827  1.00  0.00     0.303 C 
ATOM      3  O   UNL     1       7.263  -2.432  -3.334  1.00  0.00    -0.252 OA
BRANCH   2   4
ATOM      4  O   UNL     1       9.549  -2.602  -3.298  1.00  0.00    -0.481 OA
ATOM      5  H   UNL     1      10.393  -2.048  -3.246  1.00  0.00     0.296 HD
ENDBRANCH   2   4
ENDBRANCH   1   2
BRANCH   1   6
ATOM      6  C   UNL     1       7.501  -1.469  -0.566  1.00  0.00     0.047 C 
BRANCH   6   7
ATOM      7  C   UNL     1       6.636  -0.364  -0.077  1.00  0.00    -0.047 A 
ATOM      8  C   UNL     1       6.093  -0.403   1.200  1.00  0.00     0.004 A 
ATOM      9  C   UNL     1       6.319   0.738  -0.850  1.00  0.00     0.004 A 
ATOM     10  C   UNL     1       5.280   0.599   1.679  1.00  0.00     0.000 A 
ATOM     11  C   UNL     1       5.505   1.740  -0.369  1.00  0.00     0.000 A 
ATOM     12  C   UNL     1       4.969   1.694   0.899  1.00  0.00     0.000 A 
ENDBRANCH   6   7
ENDBRANCH   1   6
TORSDOF 4
ENDMDL
MODEL 4
REMARK VINA RESULT:      -6.8      3.398      5.069
REMARK SMILES O=C(O)CCc1ccccc1
REMARK SMILES IDX 4 1 2 2 1 3 3 4 5 6 6 7 7 8 11 9 8 10 10 11 9 12
REMARK H PARENT 3 5
REMARK Flexibility Score: inf
ROOT
ATOM      1  C   UNL     1       4.992   1.773   0.711  1.00  0.00     0.127 C 
ENDROOT
BRANCH   1   2
ATOM      2  C   UNL     1       4.471   1.112   1.920  1.00  0.00     0.303 C 
ATOM      3  O   UNL     1       5.161   0.212   2.471  1.00  0.00    -0.252 OA
BRANCH   2   4
ATOM      4  O   UNL     1       3.232   1.450   2.483  1.00  0.00    -0.481 OA
ATOM      5  H   UNL     1       2.544   1.906   1.899  1.00  0.00     0.296 HD
ENDBRANCH   2   4
ENDBRANCH   1   2
BRANCH   1   6
ATOM      6  C   UNL     1       6.502   1.925   0.745  1.00  0.00     0.047 C 
BRANCH   6   7
ATOM      7  C   UNL     1       7.142   1.129  -0.335  1.00  0.00    -0.047 A 
ATOM      8  C   UNL     1       6.399   0.231  -1.087  1.00  0.00     0.004 A 
ATOM      9  C   UNL     1       8.487   1.228  -0.640  1.00  0.00     0.004 A 
ATOM     10  C   UNL     1       6.964  -0.528  -2.086  1.00  0.00     0.000 A 
ATOM     11  C   UNL     1       9.051   0.467  -1.642  1.00  0.00     0.000 A 
ATOM     12  C   UNL     1       8.308  -0.423  -2.383  1.00  0.00     0.000 A 
ENDBRANCH   6   7
ENDBRANCH   1   6
TORSDOF 4
ENDMDL
MODEL 5
REMARK VINA RESULT:      -6.7      3.837      4.983
REMARK SMILES O=C(O)CCc1ccccc1
REMARK SMILES IDX 4 1 2 2 1 3 3 4 5 6 6 7 7 8 11 9 8 10 10 11 9 12
REMARK H PARENT 3 5
REMARK Flexibility Score: inf
ROOT
ATOM      1  C   UNL     1       5.551   2.866   0.045  1.00  0.00     0.127 C 
ENDROOT
BRANCH   1   2
ATOM      2  C   UNL     1       6.280   3.875   0.834  1.00  0.00     0.303 C 
ATOM      3  O   UNL     1       6.928   4.773   0.232  1.00  0.00    -0.252 OA
BRANCH   2   4
ATOM      4  O   UNL     1       6.276   3.872   2.237  1.00  0.00    -0.481 OA
ATOM      5  H   UNL     1       6.559   3.030   2.719  1.00  0.00     0.296 HD
ENDBRANCH   2   4
ENDBRANCH   1   2
BRANCH   1   6
ATOM      6  C   UNL     1       4.905   1.809   0.921  1.00  0.00     0.047 C 
BRANCH   6   7
ATOM      7  C   UNL     1       5.747   0.586   0.990  1.00  0.00    -0.047 A 
ATOM      8  C   UNL     1       6.584   0.243  -0.062  1.00  0.00     0.004 A 
ATOM      9  C   UNL     1       5.740  -0.267   2.078  1.00  0.00     0.004 A 
ATOM     10  C   UNL     1       7.368  -0.887  -0.034  1.00  0.00     0.000 A 
ATOM     11  C   UNL     1       6.527  -1.399   2.105  1.00  0.00     0.000 A 
ATOM     12  C   UNL     1       7.353  -1.733   1.057  1.00  0.00     0.000 A 
ENDBRANCH   6   7
ENDBRANCH   1   6
TORSDOF 4
ENDMDL
