@<TRIPOS>MOLECULE
/home/cewinharhar/GITHUB/reincatalyze/data/processed/docking_pred/2023-Apr-25-2248_maxeplen10_maxtrainstep1000_exh16_gamma099_lrac3e-4_lrcr1e-3/8651a6b7cbc4b018fd9bb7015a505d05e6fdae34_ligand_2.pdbqt
 12 12 0 0 0
SMALL
GASTEIGER

@<TRIPOS>ATOM
      1  C          8.3980   -0.6050   -2.1900 C.3     1  UNL1        0.1270
      2  C          8.4140   -1.8990   -2.8950 C.2     1  UNL1        0.3030
      3  O          7.3180   -2.4330   -3.2180 O.2     1  UNL1       -0.2520
      4  O          9.6080   -2.5580   -3.2210 O.3     1  UNL1       -0.4810
      5  H          9.5630   -3.5270   -3.5040 H       1  UNL1        0.2960
      6  C          7.0100    0.0100   -2.1500 C.3     1  UNL1        0.0470
      7  C          6.4880    0.0570   -0.7590 C.2     1  UNL1       -0.0470
      8  C          5.8490    1.1920   -0.2810 C.2     1  UNL1        0.0040
      9  C          6.6130   -1.0010    0.1230 C.2     1  UNL1        0.0040
     10  C          5.3640    1.2700    1.0040 C.2     1  UNL1        0.0000
     11  C          6.1260   -0.9210    1.4100 C.2     1  UNL1        0.0000
     12  C          5.4950    0.2090    1.8780 C.2     1  UNL1        0.0000
@<TRIPOS>BOND
     1     5     4    1
     2     4     2    1
     3     3     2    2
     4     2     1    1
     5     1     6    1
     6     6     7    1
     7     7     8    2
     8     7     9    1
     9     8    10    1
    10     9    11    2
    11    10    12    2
    12    11    12    1
