@<TRIPOS>MOLECULE
/home/cewinharhar/GITHUB/reincatalyze/data/processed/docking_pred/2023-Apr-25-2248_maxeplen10_maxtrainstep1000_exh16_gamma099_lrac3e-4_lrcr1e-3/8651a6b7cbc4b018fd9bb7015a505d05e6fdae34_ligand_2.pdbqt
 12 12 0 0 0
SMALL
GASTEIGER

@<TRIPOS>ATOM
      1  C          8.3220   -1.0260   -1.7640 C.3     1  UNL1        0.1270
      2  C          8.3510   -2.0460   -2.8270 C.2     1  UNL1        0.3030
      3  O          7.2630   -2.4320   -3.3340 O.2     1  UNL1       -0.2520
      4  O          9.5490   -2.6020   -3.2980 O.3     1  UNL1       -0.4810
      5  H         10.3930   -2.0480   -3.2460 H       1  UNL1        0.2960
      6  C          7.5010   -1.4690   -0.5660 C.3     1  UNL1        0.0470
      7  C          6.6360   -0.3640   -0.0770 C.2     1  UNL1       -0.0470
      8  C          6.0930   -0.4030    1.2000 C.2     1  UNL1        0.0040
      9  C          6.3190    0.7380   -0.8500 C.2     1  UNL1        0.0040
     10  C          5.2800    0.5990    1.6790 C.2     1  UNL1        0.0000
     11  C          5.5050    1.7400   -0.3690 C.2     1  UNL1        0.0000
     12  C          4.9690    1.6940    0.8990 C.2     1  UNL1        0.0000
@<TRIPOS>BOND
     1     3     2    2
     2     4     5    1
     3     4     2    1
     4     2     1    1
     5     1     6    1
     6     9    11    1
     7     9     7    2
     8     6     7    1
     9    11    12    2
    10     7     8    1
    11    12    10    1
    12     8    10    2
