@<TRIPOS>MOLECULE
/home/cewinharhar/GITHUB/reincatalyze/data/processed/docking_pred/2023-Apr-25-2248_maxeplen10_maxtrainstep1000_exh16_gamma099_lrac3e-4_lrcr1e-3/8651a6b7cbc4b018fd9bb7015a505d05e6fdae34_ligand_2.pdbqt
 12 12 0 0 0
SMALL
GASTEIGER

@<TRIPOS>ATOM
      1  C          4.9920    1.7730    0.7110 C.3     1  UNL1        0.1270
      2  C          4.4710    1.1120    1.9200 C.2     1  UNL1        0.3030
      3  O          5.1610    0.2120    2.4710 O.2     1  UNL1       -0.2520
      4  O          3.2320    1.4500    2.4830 O.3     1  UNL1       -0.4810
      5  H          2.5440    1.9060    1.8990 H       1  UNL1        0.2960
      6  C          6.5020    1.9250    0.7450 C.3     1  UNL1        0.0470
      7  C          7.1420    1.1290   -0.3350 C.2     1  UNL1       -0.0470
      8  C          6.3990    0.2310   -1.0870 C.2     1  UNL1        0.0040
      9  C          8.4870    1.2280   -0.6400 C.2     1  UNL1        0.0040
     10  C          6.9640   -0.5280   -2.0860 C.2     1  UNL1        0.0000
     11  C          9.0510    0.4670   -1.6420 C.2     1  UNL1        0.0000
     12  C          8.3080   -0.4230   -2.3830 C.2     1  UNL1        0.0000
@<TRIPOS>BOND
     1    12    10    2
     2    12    11    1
     3    10     8    1
     4    11     9    2
     5     8     7    2
     6     9     7    1
     7     7     6    1
     8     1     6    1
     9     1     2    1
    10     5     4    1
    11     2     3    2
    12     2     4    1
