@<TRIPOS>MOLECULE
/home/cewinharhar/GITHUB/reincatalyze/data/processed/docking_pred/2023-Apr-25-2248_maxeplen10_maxtrainstep1000_exh16_gamma099_lrac3e-4_lrcr1e-3/8651a6b7cbc4b018fd9bb7015a505d05e6fdae34_ligand_2.pdbqt
 12 12 0 0 0
SMALL
GASTEIGER

@<TRIPOS>ATOM
      1  C          8.3920   -0.6190   -2.1790 C.3     1  UNL1        0.1270
      2  C          8.4310   -1.8970   -2.9110 C.2     1  UNL1        0.3030
      3  O          9.5380   -2.4780   -3.0710 O.2     1  UNL1       -0.2520
      4  O          7.2750   -2.4920   -3.4380 O.3     1  UNL1       -0.4810
      5  H          6.6050   -2.8960   -2.7980 H       1  UNL1        0.2960
      6  C          7.0040   -0.0040   -2.1690 C.3     1  UNL1        0.0470
      7  C          6.4760    0.0980   -0.7830 C.2     1  UNL1       -0.0470
      8  C          6.6110   -0.9590    0.1050 C.2     1  UNL1        0.0040
      9  C          5.8250    1.2230   -0.3110 C.2     1  UNL1        0.0040
     10  C          6.1240   -0.9000    1.3910 C.2     1  UNL1        0.0000
     11  C          5.3380    1.2810    0.9770 C.2     1  UNL1        0.0000
     12  C          5.4750    0.2280    1.8520 C.2     1  UNL1        0.0000
@<TRIPOS>BOND
     1     4     2    1
     2     4     5    1
     3     3     2    2
     4     2     1    1
     5     1     6    1
     6     6     7    1
     7     7     9    2
     8     7     8    1
     9     9    11    1
    10     8    10    2
    11    11    12    2
    12    10    12    1
