@<TRIPOS>MOLECULE
/home/cewinharhar/GITHUB/reincatalyze/data/processed/docking_pred/2023-Apr-25-2248_maxeplen10_maxtrainstep1000_exh16_gamma099_lrac3e-4_lrcr1e-3/8651a6b7cbc4b018fd9bb7015a505d05e6fdae34_ligand_2.pdbqt
 12 12 0 0 0
SMALL
GASTEIGER

@<TRIPOS>ATOM
      1  C          5.5510    2.8660    0.0450 C.3     1  UNL1        0.1270
      2  C          6.2800    3.8750    0.8340 C.2     1  UNL1        0.3030
      3  O          6.9280    4.7730    0.2320 O.2     1  UNL1       -0.2520
      4  O          6.2760    3.8720    2.2370 O.3     1  UNL1       -0.4810
      5  H          6.5590    3.0300    2.7190 H       1  UNL1        0.2960
      6  C          4.9050    1.8090    0.9210 C.3     1  UNL1        0.0470
      7  C          5.7470    0.5860    0.9900 C.2     1  UNL1       -0.0470
      8  C          6.5840    0.2430   -0.0620 C.2     1  UNL1        0.0040
      9  C          5.7400   -0.2670    2.0780 C.2     1  UNL1        0.0040
     10  C          7.3680   -0.8870   -0.0340 C.2     1  UNL1        0.0000
     11  C          6.5270   -1.3990    2.1050 C.2     1  UNL1        0.0000
     12  C          7.3530   -1.7330    1.0570 C.2     1  UNL1        0.0000
@<TRIPOS>BOND
     1     8    10    1
     2     8     7    2
     3    10    12    2
     4     1     2    1
     5     1     6    1
     6     3     2    2
     7     2     4    1
     8     6     7    1
     9     7     9    1
    10    12    11    1
    11     9    11    2
    12     4     5    1
