@<TRIPOS>MOLECULE
/home/cewinharhar/GITHUB/reincatalyze/data/processed/docking_pred/2023-Apr-25-2248_maxeplen10_maxtrainstep1000_exh16_gamma099_lrac3e-4_lrcr1e-3/87c24324279ed01ab1d4888e5c128f335f215516_ligand_2.pdbqt
 12 12 0 0 0
SMALL
GASTEIGER

@<TRIPOS>ATOM
      1  C          8.3060   -1.0510   -1.7440 C.3     1  UNL1        0.1270
      2  C          8.3900   -2.0930   -2.7830 C.2     1  UNL1        0.3030
      3  O          9.5070   -2.6240   -3.0290 O.2     1  UNL1       -0.2520
      4  O          7.2680   -2.5160   -3.5100 O.3     1  UNL1       -0.4810
      5  H          6.7180   -1.8210   -3.9970 H       1  UNL1        0.2960
      6  C          7.5240   -1.5150   -0.5280 C.3     1  UNL1        0.0470
      7  C          6.6620   -0.4250   -0.0010 C.2     1  UNL1       -0.0470
      8  C          6.3640    0.6820   -0.7830 C.2     1  UNL1        0.0040
      9  C          6.1260   -0.4440    1.2730 C.2     1  UNL1        0.0040
     10  C          5.5780    1.7120   -0.3210 C.2     1  UNL1        0.0000
     11  C          5.3390    0.5890    1.7350 C.2     1  UNL1        0.0000
     12  C          5.0490    1.6850    0.9530 C.2     1  UNL1        0.0000
@<TRIPOS>BOND
     1     5     4    1
     2     4     2    1
     3     3     2    2
     4     2     1    1
     5     1     6    1
     6     8    10    1
     7     8     7    2
     8     6     7    1
     9    10    12    2
    10     7     9    1
    11    12    11    1
    12     9    11    2
