@<TRIPOS>MOLECULE
/home/cewinharhar/GITHUB/reincatalyze/data/processed/docking_pred/2023-Apr-25-2248_maxeplen10_maxtrainstep1000_exh16_gamma099_lrac3e-4_lrcr1e-3/87c24324279ed01ab1d4888e5c128f335f215516_ligand_2.pdbqt
 12 12 0 0 0
SMALL
GASTEIGER

@<TRIPOS>ATOM
      1  C          8.3870   -0.6820   -2.0830 C.3     1  UNL1        0.1270
      2  C          8.3880   -1.9220   -2.8780 C.2     1  UNL1        0.3030
      3  O          7.2870   -2.4120   -3.2500 O.2     1  UNL1       -0.2520
      4  O          9.5730   -2.5790   -3.2380 O.3     1  UNL1       -0.4810
      5  H          9.7130   -3.5300   -2.9260 H       1  UNL1        0.2960
      6  C          7.0450    0.0270   -2.1260 C.3     1  UNL1        0.0470
      7  C          6.4690    0.1610   -0.7620 C.2     1  UNL1       -0.0470
      8  C          6.6060   -0.8600    0.1680 C.2     1  UNL1        0.0040
      9  C          5.7710    1.2810   -0.3510 C.2     1  UNL1        0.0040
     10  C          6.0760   -0.7710    1.4340 C.2     1  UNL1        0.0000
     11  C          5.2410    1.3690    0.9180 C.2     1  UNL1        0.0000
     12  C          5.3790    0.3510    1.8340 C.2     1  UNL1        0.0000
@<TRIPOS>BOND
     1     3     2    2
     2     4     5    1
     3     4     2    1
     4     2     1    1
     5     6     1    1
     6     6     7    1
     7     7     9    2
     8     7     8    1
     9     9    11    1
    10     8    10    2
    11    11    12    2
    12    10    12    1
