@<TRIPOS>MOLECULE
/home/cewinharhar/GITHUB/reincatalyze/data/processed/docking_pred/2023-Apr-25-2248_maxeplen10_maxtrainstep1000_exh16_gamma099_lrac3e-4_lrcr1e-3/87c24324279ed01ab1d4888e5c128f335f215516_ligand_2.pdbqt
 12 12 0 0 0
SMALL
GASTEIGER

@<TRIPOS>ATOM
      1  C          5.0050    1.8170    0.7470 C.3     1  UNL1        0.1270
      2  C          4.4650    1.1240    1.9310 C.2     1  UNL1        0.3030
      3  O          5.1440    0.2050    2.4640 O.2     1  UNL1       -0.2520
      4  O          3.2210    1.4540    2.4880 O.3     1  UNL1       -0.4810
      5  H          2.7130    2.2400    2.1050 H       1  UNL1        0.2960
      6  C          6.5210    1.9010    0.7730 C.3     1  UNL1        0.0470
      7  C          7.1180    1.0960   -0.3240 C.2     1  UNL1       -0.0470
      8  C          8.4600    1.2280   -0.6500 C.2     1  UNL1        0.0040
      9  C          6.3850    0.1950   -1.0760 C.2     1  UNL1        0.0040
     10  C          9.0400    0.5050   -1.6670 C.2     1  UNL1        0.0000
     11  C          6.9670   -0.5290   -2.0940 C.2     1  UNL1        0.0000
     12  C          8.2990   -0.3910   -2.4120 C.2     1  UNL1        0.0000
@<TRIPOS>BOND
     1    12    11    2
     2    12    10    1
     3    11     9    1
     4    10     8    2
     5     9     7    2
     6     8     7    1
     7     7     6    1
     8     1     6    1
     9     1     2    1
    10     2     3    2
    11     2     4    1
    12     5     4    1
