@<TRIPOS>MOLECULE
/home/cewinharhar/GITHUB/reincatalyze/data/processed/docking_pred/2023-Apr-25-2248_maxeplen10_maxtrainstep1000_exh16_gamma099_lrac3e-4_lrcr1e-3/87c24324279ed01ab1d4888e5c128f335f215516_ligand_2.pdbqt
 12 12 0 0 0
SMALL
GASTEIGER

@<TRIPOS>ATOM
      1  C          8.4150   -0.6250   -2.1740 C.3     1  UNL1        0.1270
      2  C          8.4340   -1.9040   -2.9060 C.2     1  UNL1        0.3030
      3  O          9.5300   -2.5080   -3.0550 O.2     1  UNL1       -0.2520
      4  O          7.2710   -2.4740   -3.4430 O.3     1  UNL1       -0.4810
      5  H          6.5960   -1.8680   -3.8890 H       1  UNL1        0.2960
      6  C          7.0350    0.0080   -2.1580 C.3     1  UNL1        0.0470
      7  C          6.4940    0.0710   -0.7750 C.2     1  UNL1       -0.0470
      8  C          5.8450    1.2100   -0.3210 C.2     1  UNL1        0.0040
      9  C          6.6110   -0.9740    0.1230 C.2     1  UNL1        0.0040
     10  C          5.3420    1.3030    0.9570 C.2     1  UNL1        0.0000
     11  C          6.1070   -0.8790    1.4020 C.2     1  UNL1        0.0000
     12  C          5.4660    0.2550    1.8460 C.2     1  UNL1        0.0000
@<TRIPOS>BOND
     1     5     4    1
     2     4     2    1
     3     3     2    2
     4     2     1    1
     5     1     6    1
     6     6     7    1
     7     7     8    2
     8     7     9    1
     9     8    10    1
    10     9    11    2
    11    10    12    2
    12    11    12    1
