@<TRIPOS>MOLECULE
/home/cewinharhar/GITHUB/reincatalyze/data/processed/docking_pred/2023-Apr-25-2248_maxeplen10_maxtrainstep1000_exh16_gamma099_lrac3e-4_lrcr1e-3/87c24324279ed01ab1d4888e5c128f335f215516_ligand_2.pdbqt
 12 12 0 0 0
SMALL
GASTEIGER

@<TRIPOS>ATOM
      1  C          8.2780    0.1610   -2.1830 C.3     1  UNL1        0.1270
      2  C          9.4050    0.3520   -1.2520 C.2     1  UNL1        0.3030
      3  O          9.4780   -0.3730   -0.2230 O.2     1  UNL1       -0.2520
      4  O         10.4010    1.3140   -1.4720 O.3     1  UNL1       -0.4810
      5  H         11.3550    1.0020   -1.5950 H       1  UNL1        0.2960
      6  C          7.1560   -0.6550   -1.5660 C.3     1  UNL1        0.0470
      7  C          6.3750    0.1590   -0.5980 C.2     1  UNL1       -0.0470
      8  C          5.8400    1.3830   -0.9730 C.2     1  UNL1        0.0040
      9  C          6.1510   -0.2400    0.7070 C.2     1  UNL1        0.0040
     10  C          5.1210    2.1650   -0.0980 C.2     1  UNL1        0.0000
     11  C          5.4310    0.5440    1.5820 C.2     1  UNL1        0.0000
     12  C          4.9030    1.7580    1.2020 C.2     1  UNL1        0.0000
@<TRIPOS>BOND
     1     1     6    1
     2     1     2    1
     3     5     4    1
     4     6     7    1
     5     4     2    1
     6     2     3    2
     7     8     7    2
     8     8    10    1
     9     7     9    1
    10    10    12    2
    11     9    11    2
    12    12    11    1
