MODEL 1
REMARK VINA RESULT:      -7.3      0.000      0.000
REMARK SMILES O=C(O)CCc1ccccc1
REMARK SMILES IDX 4 1 2 2 1 3 3 4 5 6 6 7 7 8 11 9 8 10 10 11 9 12
REMARK H PARENT 3 5
REMARK Flexibility Score: inf
ROOT
ATOM      1  C   UNL     1       8.415  -0.625  -2.174  1.00  0.00     0.127 C 
ENDROOT
BRANCH   1   2
ATOM      2  C   UNL     1       8.434  -1.904  -2.906  1.00  0.00     0.303 C 
ATOM      3  O   UNL     1       9.530  -2.508  -3.055  1.00  0.00    -0.252 OA
BRANCH   2   4
ATOM      4  O   UNL     1       7.271  -2.474  -3.443  1.00  0.00    -0.481 OA
ATOM      5  H   UNL     1       6.596  -1.868  -3.889  1.00  0.00     0.296 HD
ENDBRANCH   2   4
ENDBRANCH   1   2
BRANCH   1   6
ATOM      6  C   UNL     1       7.035   0.008  -2.158  1.00  0.00     0.047 C 
BRANCH   6   7
ATOM      7  C   UNL     1       6.494   0.071  -0.775  1.00  0.00    -0.047 A 
ATOM      8  C   UNL     1       5.845   1.210  -0.321  1.00  0.00     0.004 A 
ATOM      9  C   UNL     1       6.611  -0.974   0.123  1.00  0.00     0.004 A 
ATOM     10  C   UNL     1       5.342   1.303   0.957  1.00  0.00     0.000 A 
ATOM     11  C   UNL     1       6.107  -0.879   1.402  1.00  0.00     0.000 A 
ATOM     12  C   UNL     1       5.466   0.255   1.846  1.00  0.00     0.000 A 
ENDBRANCH   6   7
ENDBRANCH   1   6
TORSDOF 4
ENDMDL
MODEL 2
REMARK VINA RESULT:      -7.3      0.128      1.724
REMARK SMILES O=C(O)CCc1ccccc1
REMARK SMILES IDX 4 1 2 2 1 3 3 4 5 6 6 7 7 8 11 9 8 10 10 11 9 12
REMARK H PARENT 3 5
REMARK Flexibility Score: inf
ROOT
ATOM      1  C   UNL     1       8.387  -0.682  -2.083  1.00  0.00     0.127 C 
ENDROOT
BRANCH   1   2
ATOM      2  C   UNL     1       8.388  -1.922  -2.878  1.00  0.00     0.303 C 
ATOM      3  O   UNL     1       7.287  -2.412  -3.250  1.00  0.00    -0.252 OA
BRANCH   2   4
ATOM      4  O   UNL     1       9.573  -2.579  -3.238  1.00  0.00    -0.481 OA
ATOM      5  H   UNL     1       9.713  -3.530  -2.926  1.00  0.00     0.296 HD
ENDBRANCH   2   4
ENDBRANCH   1   2
BRANCH   1   6
ATOM      6  C   UNL     1       7.045   0.027  -2.126  1.00  0.00     0.047 C 
BRANCH   6   7
ATOM      7  C   UNL     1       6.469   0.161  -0.762  1.00  0.00    -0.047 A 
ATOM      8  C   UNL     1       6.606  -0.860   0.168  1.00  0.00     0.004 A 
ATOM      9  C   UNL     1       5.771   1.281  -0.351  1.00  0.00     0.004 A 
ATOM     10  C   UNL     1       6.076  -0.771   1.434  1.00  0.00     0.000 A 
ATOM     11  C   UNL     1       5.241   1.369   0.918  1.00  0.00     0.000 A 
ATOM     12  C   UNL     1       5.379   0.351   1.834  1.00  0.00     0.000 A 
ENDBRANCH   6   7
ENDBRANCH   1   6
TORSDOF 4
ENDMDL
MODEL 3
REMARK VINA RESULT:      -7.1      0.665      1.238
REMARK SMILES O=C(O)CCc1ccccc1
REMARK SMILES IDX 4 1 2 2 1 3 3 4 5 6 6 7 7 8 11 9 8 10 10 11 9 12
REMARK H PARENT 3 5
REMARK Flexibility Score: inf
ROOT
ATOM      1  C   UNL     1       8.306  -1.051  -1.744  1.00  0.00     0.127 C 
ENDROOT
BRANCH   1   2
ATOM      2  C   UNL     1       8.390  -2.093  -2.783  1.00  0.00     0.303 C 
ATOM      3  O   UNL     1       9.507  -2.624  -3.029  1.00  0.00    -0.252 OA
BRANCH   2   4
ATOM      4  O   UNL     1       7.268  -2.516  -3.510  1.00  0.00    -0.481 OA
ATOM      5  H   UNL     1       6.718  -1.821  -3.997  1.00  0.00     0.296 HD
ENDBRANCH   2   4
ENDBRANCH   1   2
BRANCH   1   6
ATOM      6  C   UNL     1       7.524  -1.515  -0.528  1.00  0.00     0.047 C 
BRANCH   6   7
ATOM      7  C   UNL     1       6.662  -0.425  -0.001  1.00  0.00    -0.047 A 
ATOM      8  C   UNL     1       6.364   0.682  -0.783  1.00  0.00     0.004 A 
ATOM      9  C   UNL     1       6.126  -0.444   1.273  1.00  0.00     0.004 A 
ATOM     10  C   UNL     1       5.578   1.712  -0.321  1.00  0.00     0.000 A 
ATOM     11  C   UNL     1       5.339   0.589   1.735  1.00  0.00     0.000 A 
ATOM     12  C   UNL     1       5.049   1.685   0.953  1.00  0.00     0.000 A 
ENDBRANCH   6   7
ENDBRANCH   1   6
TORSDOF 4
ENDMDL
MODEL 4
REMARK VINA RESULT:      -6.8      3.396      5.074
REMARK SMILES O=C(O)CCc1ccccc1
REMARK SMILES IDX 4 1 2 2 1 3 3 4 5 6 6 7 7 8 11 9 8 10 10 11 9 12
REMARK H PARENT 3 5
REMARK Flexibility Score: inf
ROOT
ATOM      1  C   UNL     1       5.005   1.817   0.747  1.00  0.00     0.127 C 
ENDROOT
BRANCH   1   2
ATOM      2  C   UNL     1       4.465   1.124   1.931  1.00  0.00     0.303 C 
ATOM      3  O   UNL     1       5.144   0.205   2.464  1.00  0.00    -0.252 OA
BRANCH   2   4
ATOM      4  O   UNL     1       3.221   1.454   2.488  1.00  0.00    -0.481 OA
ATOM      5  H   UNL     1       2.713   2.240   2.105  1.00  0.00     0.296 HD
ENDBRANCH   2   4
ENDBRANCH   1   2
BRANCH   1   6
ATOM      6  C   UNL     1       6.521   1.901   0.773  1.00  0.00     0.047 C 
BRANCH   6   7
ATOM      7  C   UNL     1       7.118   1.096  -0.324  1.00  0.00    -0.047 A 
ATOM      8  C   UNL     1       8.460   1.228  -0.650  1.00  0.00     0.004 A 
ATOM      9  C   UNL     1       6.385   0.195  -1.076  1.00  0.00     0.004 A 
ATOM     10  C   UNL     1       9.040   0.505  -1.667  1.00  0.00     0.000 A 
ATOM     11  C   UNL     1       6.967  -0.529  -2.094  1.00  0.00     0.000 A 
ATOM     12  C   UNL     1       8.299  -0.391  -2.412  1.00  0.00     0.000 A 
ENDBRANCH   6   7
ENDBRANCH   1   6
TORSDOF 4
ENDMDL
MODEL 5
REMARK VINA RESULT:      -6.7      1.945      2.332
REMARK SMILES O=C(O)CCc1ccccc1
REMARK SMILES IDX 4 1 2 2 1 3 3 4 5 6 6 7 7 8 11 9 8 10 10 11 9 12
REMARK H PARENT 3 5
REMARK Flexibility Score: inf
ROOT
ATOM      1  C   UNL     1       8.278   0.161  -2.183  1.00  0.00     0.127 C 
ENDROOT
BRANCH   1   2
ATOM      2  C   UNL     1       9.405   0.352  -1.252  1.00  0.00     0.303 C 
ATOM      3  O   UNL     1       9.478  -0.373  -0.223  1.00  0.00    -0.252 OA
BRANCH   2   4
ATOM      4  O   UNL     1      10.401   1.314  -1.472  1.00  0.00    -0.481 OA
ATOM      5  H   UNL     1      11.355   1.002  -1.595  1.00  0.00     0.296 HD
ENDBRANCH   2   4
ENDBRANCH   1   2
BRANCH   1   6
ATOM      6  C   UNL     1       7.156  -0.655  -1.566  1.00  0.00     0.047 C 
BRANCH   6   7
ATOM      7  C   UNL     1       6.375   0.159  -0.598  1.00  0.00    -0.047 A 
ATOM      8  C   UNL     1       5.840   1.383  -0.973  1.00  0.00     0.004 A 
ATOM      9  C   UNL     1       6.151  -0.240   0.707  1.00  0.00     0.004 A 
ATOM     10  C   UNL     1       5.121   2.165  -0.098  1.00  0.00     0.000 A 
ATOM     11  C   UNL     1       5.431   0.544   1.582  1.00  0.00     0.000 A 
ATOM     12  C   UNL     1       4.903   1.758   1.202  1.00  0.00     0.000 A 
ENDBRANCH   6   7
ENDBRANCH   1   6
TORSDOF 4
ENDMDL
