@<TRIPOS>MOLECULE
/home/cewinharhar/GITHUB/reincatalyze/data/processed/docking_pred/2023-Apr-25-2248_maxeplen10_maxtrainstep1000_exh16_gamma099_lrac3e-4_lrcr1e-3/88c4e0f8a026884e113c16f062f94e0c253125d7_ligand_2.pdbqt
 12 12 0 0 0
SMALL
GASTEIGER

@<TRIPOS>ATOM
      1  C          8.3490    0.3240   -2.0410 C.3     1  UNL1        0.1270
      2  C          9.4770    0.3950   -1.0940 C.2     1  UNL1        0.3030
      3  O          9.5020   -0.3940   -0.1120 O.2     1  UNL1       -0.2520
      4  O         10.5260    1.3130   -1.2490 O.3     1  UNL1       -0.4810
      5  H         11.4720    0.9610   -1.3010 H       1  UNL1        0.2960
      6  C          7.2160   -0.5420   -1.5190 C.3     1  UNL1        0.0470
      7  C          6.4030    0.1930   -0.5150 C.2     1  UNL1       -0.0470
      8  C          6.1730   -0.3470    0.7420 C.2     1  UNL1        0.0040
      9  C          5.8330    1.4270   -0.7720 C.2     1  UNL1        0.0040
     10  C          5.4160    0.3030    1.6890 C.2     1  UNL1        0.0000
     11  C          5.0750    2.0770    0.1780 C.2     1  UNL1        0.0000
     12  C          4.8500    1.5340    1.4230 C.2     1  UNL1        0.0000
@<TRIPOS>BOND
     1     1     6    1
     2     1     2    1
     3     6     7    1
     4     5     4    1
     5     4     2    1
     6     2     3    2
     7     9     7    2
     8     9    11    1
     9     7     8    1
    10    11    12    2
    11     8    10    2
    12    12    10    1
