@<TRIPOS>MOLECULE
/home/cewinharhar/GITHUB/reincatalyze/data/processed/docking_pred/2023-Apr-25-2248_maxeplen10_maxtrainstep1000_exh16_gamma099_lrac3e-4_lrcr1e-3/88c4e0f8a026884e113c16f062f94e0c253125d7_ligand_2.pdbqt
 12 12 0 0 0
SMALL
GASTEIGER

@<TRIPOS>ATOM
      1  C          8.3400   -1.7230    1.1390 C.3     1  UNL1        0.1270
      2  C          8.7170   -2.9760    0.4600 C.2     1  UNL1        0.3030
      3  O          9.4500   -3.8030    1.0670 O.2     1  UNL1       -0.2520
      4  O          8.2870   -3.2810   -0.8390 O.3     1  UNL1       -0.4810
      5  H          8.4310   -4.2190   -1.1880 H       1  UNL1        0.2960
      6  C          6.8490   -1.6450    1.4120 C.3     1  UNL1        0.0470
      7  C          6.2740   -0.3840    0.8750 C.2     1  UNL1       -0.0470
      8  C          6.5220    0.0060   -0.4340 C.2     1  UNL1        0.0040
      9  C          5.4850    0.4620    1.6330 C.2     1  UNL1        0.0040
     10  C          6.0130    1.1720   -0.9570 C.2     1  UNL1        0.0000
     11  C          4.9760    1.6300    1.1070 C.2     1  UNL1        0.0000
     12  C          5.2280    2.0100   -0.1920 C.2     1  UNL1        0.0000
@<TRIPOS>BOND
     1     5     4    1
     2    10     8    1
     3    10    12    2
     4     4     2    1
     5     8     7    2
     6    12    11    1
     7     2     3    2
     8     2     1    1
     9     7     6    1
    10     7     9    1
    11    11     9    2
    12     1     6    1
