MODEL 1
REMARK VINA RESULT:      -7.3      0.000      0.000
REMARK SMILES O=C(O)CCc1ccccc1
REMARK SMILES IDX 4 1 2 2 1 3 3 4 5 6 6 7 7 8 11 9 8 10 10 11 9 12
REMARK H PARENT 3 5
REMARK Flexibility Score: inf
ROOT
ATOM      1  C   UNL     1       8.373  -0.651  -2.117  1.00  0.00     0.127 C 
ENDROOT
BRANCH   1   2
ATOM      2  C   UNL     1       8.387  -1.907  -2.889  1.00  0.00     0.303 C 
ATOM      3  O   UNL     1       7.292  -2.415  -3.252  1.00  0.00    -0.252 OA
BRANCH   2   4
ATOM      4  O   UNL     1       9.580  -2.558  -3.236  1.00  0.00    -0.481 OA
ATOM      5  H   UNL     1       9.566  -3.562  -3.355  1.00  0.00     0.296 HD
ENDBRANCH   2   4
ENDBRANCH   1   2
BRANCH   1   6
ATOM      6  C   UNL     1       7.007   0.012  -2.127  1.00  0.00     0.047 C 
BRANCH   6   7
ATOM      7  C   UNL     1       6.460   0.124  -0.749  1.00  0.00    -0.047 A 
ATOM      8  C   UNL     1       6.597  -0.920   0.154  1.00  0.00     0.004 A 
ATOM      9  C   UNL     1       5.789   1.246  -0.300  1.00  0.00     0.004 A 
ATOM     10  C   UNL     1       6.093  -0.851   1.432  1.00  0.00     0.000 A 
ATOM     11  C   UNL     1       5.284   1.314   0.981  1.00  0.00     0.000 A 
ATOM     12  C   UNL     1       5.423   0.273   1.871  1.00  0.00     0.000 A 
ENDBRANCH   6   7
ENDBRANCH   1   6
TORSDOF 4
ENDMDL
MODEL 2
REMARK VINA RESULT:      -7.2      0.056      1.422
REMARK SMILES O=C(O)CCc1ccccc1
REMARK SMILES IDX 4 1 2 2 1 3 3 4 5 6 6 7 7 8 11 9 8 10 10 11 9 12
REMARK H PARENT 3 5
REMARK Flexibility Score: inf
ROOT
ATOM      1  C   UNL     1       8.438  -0.657  -2.129  1.00  0.00     0.127 C 
ENDROOT
BRANCH   1   2
ATOM      2  C   UNL     1       8.415  -1.920  -2.887  1.00  0.00     0.303 C 
ATOM      3  O   UNL     1       7.304  -2.415  -3.218  1.00  0.00    -0.252 OA
BRANCH   2   4
ATOM      4  O   UNL     1       9.589  -2.593  -3.255  1.00  0.00    -0.481 OA
ATOM      5  H   UNL     1       9.572  -3.179  -4.079  1.00  0.00     0.296 HD
ENDBRANCH   2   4
ENDBRANCH   1   2
BRANCH   1   6
ATOM      6  C   UNL     1       7.091   0.043  -2.139  1.00  0.00     0.047 C 
BRANCH   6   7
ATOM      7  C   UNL     1       6.513   0.108  -0.771  1.00  0.00    -0.047 A 
ATOM      8  C   UNL     1       5.818   1.232  -0.349  1.00  0.00     0.004 A 
ATOM      9  C   UNL     1       6.641  -0.920   0.144  1.00  0.00     0.004 A 
ATOM     10  C   UNL     1       5.281   1.328   0.914  1.00  0.00     0.000 A 
ATOM     11  C   UNL     1       6.102  -0.823   1.409  1.00  0.00     0.000 A 
ATOM     12  C   UNL     1       5.415   0.296   1.821  1.00  0.00     0.000 A 
ENDBRANCH   6   7
ENDBRANCH   1   6
TORSDOF 4
ENDMDL
MODEL 3
REMARK VINA RESULT:      -6.8      3.326      5.169
REMARK SMILES O=C(O)CCc1ccccc1
REMARK SMILES IDX 4 1 2 2 1 3 3 4 5 6 6 7 7 8 11 9 8 10 10 11 9 12
REMARK H PARENT 3 5
REMARK Flexibility Score: inf
ROOT
ATOM      1  C   UNL     1       5.006   1.791   0.718  1.00  0.00     0.127 C 
ENDROOT
BRANCH   1   2
ATOM      2  C   UNL     1       4.481   1.120   1.920  1.00  0.00     0.303 C 
ATOM      3  O   UNL     1       5.171   0.217   2.468  1.00  0.00    -0.252 OA
BRANCH   2   4
ATOM      4  O   UNL     1       3.238   1.451   2.478  1.00  0.00    -0.481 OA
ATOM      5  H   UNL     1       3.192   1.660   3.466  1.00  0.00     0.296 HD
ENDBRANCH   2   4
ENDBRANCH   1   2
BRANCH   1   6
ATOM      6  C   UNL     1       6.520   1.909   0.741  1.00  0.00     0.047 C 
BRANCH   6   7
ATOM      7  C   UNL     1       7.134   1.096  -0.341  1.00  0.00    -0.047 A 
ATOM      8  C   UNL     1       8.482   1.223  -0.643  1.00  0.00     0.004 A 
ATOM      9  C   UNL     1       6.413   0.192  -1.100  1.00  0.00     0.004 A 
ATOM     10  C   UNL     1       9.078   0.492  -1.645  1.00  0.00     0.000 A 
ATOM     11  C   UNL     1       7.011  -0.539  -2.103  1.00  0.00     0.000 A 
ATOM     12  C   UNL     1       8.349  -0.406  -2.398  1.00  0.00     0.000 A 
ENDBRANCH   6   7
ENDBRANCH   1   6
TORSDOF 4
ENDMDL
MODEL 4
REMARK VINA RESULT:      -6.6      1.964      2.265
REMARK SMILES O=C(O)CCc1ccccc1
REMARK SMILES IDX 4 1 2 2 1 3 3 4 5 6 6 7 7 8 11 9 8 10 10 11 9 12
REMARK H PARENT 3 5
REMARK Flexibility Score: inf
ROOT
ATOM      1  C   UNL     1       8.349   0.324  -2.041  1.00  0.00     0.127 C 
ENDROOT
BRANCH   1   2
ATOM      2  C   UNL     1       9.477   0.395  -1.094  1.00  0.00     0.303 C 
ATOM      3  O   UNL     1       9.502  -0.394  -0.112  1.00  0.00    -0.252 OA
BRANCH   2   4
ATOM      4  O   UNL     1      10.526   1.313  -1.249  1.00  0.00    -0.481 OA
ATOM      5  H   UNL     1      11.472   0.961  -1.301  1.00  0.00     0.296 HD
ENDBRANCH   2   4
ENDBRANCH   1   2
BRANCH   1   6
ATOM      6  C   UNL     1       7.216  -0.542  -1.519  1.00  0.00     0.047 C 
BRANCH   6   7
ATOM      7  C   UNL     1       6.403   0.193  -0.515  1.00  0.00    -0.047 A 
ATOM      8  C   UNL     1       6.173  -0.347   0.742  1.00  0.00     0.004 A 
ATOM      9  C   UNL     1       5.833   1.427  -0.772  1.00  0.00     0.004 A 
ATOM     10  C   UNL     1       5.416   0.303   1.689  1.00  0.00     0.000 A 
ATOM     11  C   UNL     1       5.075   2.077   0.178  1.00  0.00     0.000 A 
ATOM     12  C   UNL     1       4.850   1.534   1.423  1.00  0.00     0.000 A 
ENDBRANCH   6   7
ENDBRANCH   1   6
TORSDOF 4
ENDMDL
MODEL 5
REMARK VINA RESULT:      -6.6      2.016      2.994
REMARK SMILES O=C(O)CCc1ccccc1
REMARK SMILES IDX 4 1 2 2 1 3 3 4 5 6 6 7 7 8 11 9 8 10 10 11 9 12
REMARK H PARENT 3 5
REMARK Flexibility Score: inf
ROOT
ATOM      1  C   UNL     1       8.340  -1.723   1.139  1.00  0.00     0.127 C 
ENDROOT
BRANCH   1   2
ATOM      2  C   UNL     1       8.717  -2.976   0.460  1.00  0.00     0.303 C 
ATOM      3  O   UNL     1       9.450  -3.803   1.067  1.00  0.00    -0.252 OA
BRANCH   2   4
ATOM      4  O   UNL     1       8.287  -3.281  -0.839  1.00  0.00    -0.481 OA
ATOM      5  H   UNL     1       8.431  -4.219  -1.188  1.00  0.00     0.296 HD
ENDBRANCH   2   4
ENDBRANCH   1   2
BRANCH   1   6
ATOM      6  C   UNL     1       6.849  -1.645   1.412  1.00  0.00     0.047 C 
BRANCH   6   7
ATOM      7  C   UNL     1       6.274  -0.384   0.875  1.00  0.00    -0.047 A 
ATOM      8  C   UNL     1       6.522   0.006  -0.434  1.00  0.00     0.004 A 
ATOM      9  C   UNL     1       5.485   0.462   1.633  1.00  0.00     0.004 A 
ATOM     10  C   UNL     1       6.013   1.172  -0.957  1.00  0.00     0.000 A 
ATOM     11  C   UNL     1       4.976   1.630   1.107  1.00  0.00     0.000 A 
ATOM     12  C   UNL     1       5.228   2.010  -0.192  1.00  0.00     0.000 A 
ENDBRANCH   6   7
ENDBRANCH   1   6
TORSDOF 4
ENDMDL
