@<TRIPOS>MOLECULE
/home/cewinharhar/GITHUB/reincatalyze/data/processed/docking_pred/2023-Apr-25-2248_maxeplen10_maxtrainstep1000_exh16_gamma099_lrac3e-4_lrcr1e-3/88c4e0f8a026884e113c16f062f94e0c253125d7_ligand_2.pdbqt
 12 12 0 0 0
SMALL
GASTEIGER

@<TRIPOS>ATOM
      1  C          5.0060    1.7910    0.7180 C.3     1  UNL1        0.1270
      2  C          4.4810    1.1200    1.9200 C.2     1  UNL1        0.3030
      3  O          5.1710    0.2170    2.4680 O.2     1  UNL1       -0.2520
      4  O          3.2380    1.4510    2.4780 O.3     1  UNL1       -0.4810
      5  H          3.1920    1.6600    3.4660 H       1  UNL1        0.2960
      6  C          6.5200    1.9090    0.7410 C.3     1  UNL1        0.0470
      7  C          7.1340    1.0960   -0.3410 C.2     1  UNL1       -0.0470
      8  C          8.4820    1.2230   -0.6430 C.2     1  UNL1        0.0040
      9  C          6.4130    0.1920   -1.1000 C.2     1  UNL1        0.0040
     10  C          9.0780    0.4920   -1.6450 C.2     1  UNL1        0.0000
     11  C          7.0110   -0.5390   -2.1030 C.2     1  UNL1        0.0000
     12  C          8.3490   -0.4060   -2.3980 C.2     1  UNL1        0.0000
@<TRIPOS>BOND
     1    12    11    2
     2    12    10    1
     3    11     9    1
     4    10     8    2
     5     9     7    2
     6     8     7    1
     7     7     6    1
     8     1     6    1
     9     1     2    1
    10     2     3    2
    11     2     4    1
    12     4     5    1
