@<TRIPOS>MOLECULE
/home/cewinharhar/GITHUB/reincatalyze/data/processed/docking_pred/2023-Apr-25-2248_maxeplen10_maxtrainstep1000_exh16_gamma099_lrac3e-4_lrcr1e-3/88c4e0f8a026884e113c16f062f94e0c253125d7_ligand_2.pdbqt
 12 12 0 0 0
SMALL
GASTEIGER

@<TRIPOS>ATOM
      1  C          8.4380   -0.6570   -2.1290 C.3     1  UNL1        0.1270
      2  C          8.4150   -1.9200   -2.8870 C.2     1  UNL1        0.3030
      3  O          7.3040   -2.4150   -3.2180 O.2     1  UNL1       -0.2520
      4  O          9.5890   -2.5930   -3.2550 O.3     1  UNL1       -0.4810
      5  H          9.5720   -3.1790   -4.0790 H       1  UNL1        0.2960
      6  C          7.0910    0.0430   -2.1390 C.3     1  UNL1        0.0470
      7  C          6.5130    0.1080   -0.7710 C.2     1  UNL1       -0.0470
      8  C          5.8180    1.2320   -0.3490 C.2     1  UNL1        0.0040
      9  C          6.6410   -0.9200    0.1440 C.2     1  UNL1        0.0040
     10  C          5.2810    1.3280    0.9140 C.2     1  UNL1        0.0000
     11  C          6.1020   -0.8230    1.4090 C.2     1  UNL1        0.0000
     12  C          5.4150    0.2960    1.8210 C.2     1  UNL1        0.0000
@<TRIPOS>BOND
     1     5     4    1
     2     4     2    1
     3     3     2    2
     4     2     1    1
     5     6     1    1
     6     6     7    1
     7     7     8    2
     8     7     9    1
     9     8    10    1
    10     9    11    2
    11    10    12    2
    12    11    12    1
