@<TRIPOS>MOLECULE
/home/cewinharhar/GITHUB/reincatalyze/data/processed/docking_pred/2023-Apr-25-2248_maxeplen10_maxtrainstep1000_exh16_gamma099_lrac3e-4_lrcr1e-3/88c4e0f8a026884e113c16f062f94e0c253125d7_ligand_2.pdbqt
 12 12 0 0 0
SMALL
GASTEIGER

@<TRIPOS>ATOM
      1  C          8.3730   -0.6510   -2.1170 C.3     1  UNL1        0.1270
      2  C          8.3870   -1.9070   -2.8890 C.2     1  UNL1        0.3030
      3  O          7.2920   -2.4150   -3.2520 O.2     1  UNL1       -0.2520
      4  O          9.5800   -2.5580   -3.2360 O.3     1  UNL1       -0.4810
      5  H          9.5660   -3.5620   -3.3550 H       1  UNL1        0.2960
      6  C          7.0070    0.0120   -2.1270 C.3     1  UNL1        0.0470
      7  C          6.4600    0.1240   -0.7490 C.2     1  UNL1       -0.0470
      8  C          6.5970   -0.9200    0.1540 C.2     1  UNL1        0.0040
      9  C          5.7890    1.2460   -0.3000 C.2     1  UNL1        0.0040
     10  C          6.0930   -0.8510    1.4320 C.2     1  UNL1        0.0000
     11  C          5.2840    1.3140    0.9810 C.2     1  UNL1        0.0000
     12  C          5.4230    0.2730    1.8710 C.2     1  UNL1        0.0000
@<TRIPOS>BOND
     1     5     4    1
     2     3     2    2
     3     4     2    1
     4     2     1    1
     5     6     1    1
     6     6     7    1
     7     7     9    2
     8     7     8    1
     9     9    11    1
    10     8    10    2
    11    11    12    2
    12    10    12    1
