@<TRIPOS>MOLECULE
/home/cewinharhar/GITHUB/reincatalyze/data/processed/docking_pred/2023-Apr-25-2248_maxeplen10_maxtrainstep1000_exh16_gamma099_lrac3e-4_lrcr1e-3/895ea28dab147140afd805a2e235fc395d2e1c3a_ligand_2.pdbqt
 12 12 0 0 0
SMALL
GASTEIGER

@<TRIPOS>ATOM
      1  C          5.0030    1.7800    0.7150 C.3     1  UNL1        0.1270
      2  C          4.4720    1.1170    1.9190 C.2     1  UNL1        0.3030
      3  O          5.1530    0.2110    2.4700 O.2     1  UNL1       -0.2520
      4  O          3.2320    1.4610    2.4760 O.3     1  UNL1       -0.4810
      5  H          2.9930    2.4400    2.5580 H       1  UNL1        0.2960
      6  C          6.5150    1.9130    0.7530 C.3     1  UNL1        0.0470
      7  C          7.1460    1.1220   -0.3350 C.2     1  UNL1       -0.0470
      8  C          6.3980    0.2250   -1.0840 C.2     1  UNL1        0.0040
      9  C          8.4890    1.2240   -0.6520 C.2     1  UNL1        0.0040
     10  C          6.9560   -0.5290   -2.0910 C.2     1  UNL1        0.0000
     11  C          9.0460    0.4670   -1.6610 C.2     1  UNL1        0.0000
     12  C          8.2970   -0.4220   -2.3990 C.2     1  UNL1        0.0000
@<TRIPOS>BOND
     1    12    10    2
     2    12    11    1
     3    10     8    1
     4    11     9    2
     5     8     7    2
     6     9     7    1
     7     7     6    1
     8     1     6    1
     9     1     2    1
    10     2     3    2
    11     2     4    1
    12     4     5    1
