MODEL 1
REMARK VINA RESULT:      -7.3      0.000      0.000
REMARK SMILES O=C(O)CCc1ccccc1
REMARK SMILES IDX 4 1 2 2 1 3 3 4 5 6 6 7 7 8 11 9 8 10 10 11 9 12
REMARK H PARENT 3 5
REMARK Flexibility Score: inf
ROOT
ATOM      1  C   UNL     1       8.381  -0.672  -2.098  1.00  0.00     0.127 C 
ENDROOT
BRANCH   1   2
ATOM      2  C   UNL     1       8.418  -1.911  -2.895  1.00  0.00     0.303 C 
ATOM      3  O   UNL     1       9.526  -2.479  -3.093  1.00  0.00    -0.252 OA
BRANCH   2   4
ATOM      4  O   UNL     1       7.260  -2.484  -3.441  1.00  0.00    -0.481 OA
ATOM      5  H   UNL     1       7.106  -3.475  -3.315  1.00  0.00     0.296 HD
ENDBRANCH   2   4
ENDBRANCH   1   2
BRANCH   1   6
ATOM      6  C   UNL     1       7.007  -0.025  -2.106  1.00  0.00     0.047 C 
BRANCH   6   7
ATOM      7  C   UNL     1       6.462   0.082  -0.727  1.00  0.00    -0.047 A 
ATOM      8  C   UNL     1       6.578  -0.975   0.164  1.00  0.00     0.004 A 
ATOM      9  C   UNL     1       5.812   1.212  -0.265  1.00  0.00     0.004 A 
ATOM     10  C   UNL     1       6.074  -0.911   1.443  1.00  0.00     0.000 A 
ATOM     11  C   UNL     1       5.308   1.274   1.016  1.00  0.00     0.000 A 
ATOM     12  C   UNL     1       5.426   0.221   1.894  1.00  0.00     0.000 A 
ENDBRANCH   6   7
ENDBRANCH   1   6
TORSDOF 4
ENDMDL
MODEL 2
REMARK VINA RESULT:      -7.3      0.097      1.723
REMARK SMILES O=C(O)CCc1ccccc1
REMARK SMILES IDX 4 1 2 2 1 3 3 4 5 6 6 7 7 8 11 9 8 10 10 11 9 12
REMARK H PARENT 3 5
REMARK Flexibility Score: inf
ROOT
ATOM      1  C   UNL     1       8.404  -0.669  -2.122  1.00  0.00     0.127 C 
ENDROOT
BRANCH   1   2
ATOM      2  C   UNL     1       8.400  -1.932  -2.882  1.00  0.00     0.303 C 
ATOM      3  O   UNL     1       7.297  -2.427  -3.240  1.00  0.00    -0.252 OA
BRANCH   2   4
ATOM      4  O   UNL     1       9.583  -2.603  -3.224  1.00  0.00    -0.481 OA
ATOM      5  H   UNL     1      10.152  -2.229  -3.971  1.00  0.00     0.296 HD
ENDBRANCH   2   4
ENDBRANCH   1   2
BRANCH   1   6
ATOM      6  C   UNL     1       7.043   0.004  -2.121  1.00  0.00     0.047 C 
BRANCH   6   7
ATOM      7  C   UNL     1       6.485   0.074  -0.745  1.00  0.00    -0.047 A 
ATOM      8  C   UNL     1       5.798   1.201  -0.317  1.00  0.00     0.004 A 
ATOM      9  C   UNL     1       6.622  -0.952   0.171  1.00  0.00     0.004 A 
ATOM     10  C   UNL     1       5.278   1.301   0.953  1.00  0.00     0.000 A 
ATOM     11  C   UNL     1       6.100  -0.851   1.443  1.00  0.00     0.000 A 
ATOM     12  C   UNL     1       5.421   0.271   1.861  1.00  0.00     0.000 A 
ENDBRANCH   6   7
ENDBRANCH   1   6
TORSDOF 4
ENDMDL
MODEL 3
REMARK VINA RESULT:      -6.8      3.398      5.080
REMARK SMILES O=C(O)CCc1ccccc1
REMARK SMILES IDX 4 1 2 2 1 3 3 4 5 6 6 7 7 8 11 9 8 10 10 11 9 12
REMARK H PARENT 3 5
REMARK Flexibility Score: inf
ROOT
ATOM      1  C   UNL     1       5.003   1.780   0.715  1.00  0.00     0.127 C 
ENDROOT
BRANCH   1   2
ATOM      2  C   UNL     1       4.472   1.117   1.919  1.00  0.00     0.303 C 
ATOM      3  O   UNL     1       5.153   0.211   2.470  1.00  0.00    -0.252 OA
BRANCH   2   4
ATOM      4  O   UNL     1       3.232   1.461   2.476  1.00  0.00    -0.481 OA
ATOM      5  H   UNL     1       2.993   2.440   2.558  1.00  0.00     0.296 HD
ENDBRANCH   2   4
ENDBRANCH   1   2
BRANCH   1   6
ATOM      6  C   UNL     1       6.515   1.913   0.753  1.00  0.00     0.047 C 
BRANCH   6   7
ATOM      7  C   UNL     1       7.146   1.122  -0.335  1.00  0.00    -0.047 A 
ATOM      8  C   UNL     1       6.398   0.225  -1.084  1.00  0.00     0.004 A 
ATOM      9  C   UNL     1       8.489   1.224  -0.652  1.00  0.00     0.004 A 
ATOM     10  C   UNL     1       6.956  -0.529  -2.091  1.00  0.00     0.000 A 
ATOM     11  C   UNL     1       9.046   0.467  -1.661  1.00  0.00     0.000 A 
ATOM     12  C   UNL     1       8.297  -0.422  -2.399  1.00  0.00     0.000 A 
ENDBRANCH   6   7
ENDBRANCH   1   6
TORSDOF 4
ENDMDL
MODEL 4
REMARK VINA RESULT:      -6.8      3.389      5.090
REMARK SMILES O=C(O)CCc1ccccc1
REMARK SMILES IDX 4 1 2 2 1 3 3 4 5 6 6 7 7 8 11 9 8 10 10 11 9 12
REMARK H PARENT 3 5
REMARK Flexibility Score: inf
ROOT
ATOM      1  C   UNL     1       4.993   1.801   0.685  1.00  0.00     0.127 C 
ENDROOT
BRANCH   1   2
ATOM      2  C   UNL     1       4.477   1.136   1.895  1.00  0.00     0.303 C 
ATOM      3  O   UNL     1       5.171   0.237   2.443  1.00  0.00    -0.252 OA
BRANCH   2   4
ATOM      4  O   UNL     1       3.238   1.471   2.461  1.00  0.00    -0.481 OA
ATOM      5  H   UNL     1       2.849   0.861   3.168  1.00  0.00     0.296 HD
ENDBRANCH   2   4
ENDBRANCH   1   2
BRANCH   1   6
ATOM      6  C   UNL     1       6.506   1.927   0.701  1.00  0.00     0.047 C 
BRANCH   6   7
ATOM      7  C   UNL     1       7.121   1.097  -0.367  1.00  0.00    -0.047 A 
ATOM      8  C   UNL     1       8.477   1.192  -0.644  1.00  0.00     0.004 A 
ATOM      9  C   UNL     1       6.393   0.208  -1.137  1.00  0.00     0.004 A 
ATOM     10  C   UNL     1       9.074   0.444  -1.633  1.00  0.00     0.000 A 
ATOM     11  C   UNL     1       6.992  -0.540  -2.127  1.00  0.00     0.000 A 
ATOM     12  C   UNL     1       8.338  -0.439  -2.397  1.00  0.00     0.000 A 
ENDBRANCH   6   7
ENDBRANCH   1   6
TORSDOF 4
ENDMDL
MODEL 5
REMARK VINA RESULT:      -6.6      1.949      2.353
REMARK SMILES O=C(O)CCc1ccccc1
REMARK SMILES IDX 4 1 2 2 1 3 3 4 5 6 6 7 7 8 11 9 8 10 10 11 9 12
REMARK H PARENT 3 5
REMARK Flexibility Score: inf
ROOT
ATOM      1  C   UNL     1       8.264   0.233  -2.195  1.00  0.00     0.127 C 
ENDROOT
BRANCH   1   2
ATOM      2  C   UNL     1       9.384   0.378  -1.249  1.00  0.00     0.303 C 
ATOM      3  O   UNL     1       9.452  -0.398  -0.257  1.00  0.00    -0.252 OA
BRANCH   2   4
ATOM      4  O   UNL     1      10.381   1.351  -1.413  1.00  0.00    -0.481 OA
ATOM      5  H   UNL     1      11.174   1.136  -2.002  1.00  0.00     0.296 HD
ENDBRANCH   2   4
ENDBRANCH   1   2
BRANCH   1   6
ATOM      6  C   UNL     1       7.111  -0.557  -1.603  1.00  0.00     0.047 C 
BRANCH   6   7
ATOM      7  C   UNL     1       6.339   0.270  -0.638  1.00  0.00    -0.047 A 
ATOM      8  C   UNL     1       6.115  -0.177   0.656  1.00  0.00     0.004 A 
ATOM      9  C   UNL     1       5.803   1.501  -0.969  1.00  0.00     0.004 A 
ATOM     10  C   UNL     1       5.396   0.559   1.569  1.00  0.00     0.000 A 
ATOM     11  C   UNL     1       5.083   2.238  -0.053  1.00  0.00     0.000 A 
ATOM     12  C   UNL     1       4.864   1.787   1.228  1.00  0.00     0.000 A 
ENDBRANCH   6   7
ENDBRANCH   1   6
TORSDOF 4
ENDMDL
