@<TRIPOS>MOLECULE
/home/cewinharhar/GITHUB/reincatalyze/data/processed/docking_pred/2023-Apr-25-2248_maxeplen10_maxtrainstep1000_exh16_gamma099_lrac3e-4_lrcr1e-3/895ea28dab147140afd805a2e235fc395d2e1c3a_ligand_2.pdbqt
 12 12 0 0 0
SMALL
GASTEIGER

@<TRIPOS>ATOM
      1  C          4.9930    1.8010    0.6850 C.3     1  UNL1        0.1270
      2  C          4.4770    1.1360    1.8950 C.2     1  UNL1        0.3030
      3  O          5.1710    0.2370    2.4430 O.2     1  UNL1       -0.2520
      4  O          3.2380    1.4710    2.4610 O.3     1  UNL1       -0.4810
      5  H          2.8490    0.8610    3.1680 H       1  UNL1        0.2960
      6  C          6.5060    1.9270    0.7010 C.3     1  UNL1        0.0470
      7  C          7.1210    1.0970   -0.3670 C.2     1  UNL1       -0.0470
      8  C          8.4770    1.1920   -0.6440 C.2     1  UNL1        0.0040
      9  C          6.3930    0.2080   -1.1370 C.2     1  UNL1        0.0040
     10  C          9.0740    0.4440   -1.6330 C.2     1  UNL1        0.0000
     11  C          6.9920   -0.5400   -2.1270 C.2     1  UNL1        0.0000
     12  C          8.3380   -0.4390   -2.3970 C.2     1  UNL1        0.0000
@<TRIPOS>BOND
     1    12    11    2
     2    12    10    1
     3    11     9    1
     4    10     8    2
     5     9     7    2
     6     8     7    1
     7     7     6    1
     8     1     6    1
     9     1     2    1
    10     2     3    2
    11     2     4    1
    12     4     5    1
