@<TRIPOS>MOLECULE
/home/cewinharhar/GITHUB/reincatalyze/data/processed/docking_pred/2023-Apr-25-2248_maxeplen10_maxtrainstep1000_exh16_gamma099_lrac3e-4_lrcr1e-3/895ea28dab147140afd805a2e235fc395d2e1c3a_ligand_2.pdbqt
 12 12 0 0 0
SMALL
GASTEIGER

@<TRIPOS>ATOM
      1  C          8.3810   -0.6720   -2.0980 C.3     1  UNL1        0.1270
      2  C          8.4180   -1.9110   -2.8950 C.2     1  UNL1        0.3030
      3  O          9.5260   -2.4790   -3.0930 O.2     1  UNL1       -0.2520
      4  O          7.2600   -2.4840   -3.4410 O.3     1  UNL1       -0.4810
      5  H          7.1060   -3.4750   -3.3150 H       1  UNL1        0.2960
      6  C          7.0070   -0.0250   -2.1060 C.3     1  UNL1        0.0470
      7  C          6.4620    0.0820   -0.7270 C.2     1  UNL1       -0.0470
      8  C          6.5780   -0.9750    0.1640 C.2     1  UNL1        0.0040
      9  C          5.8120    1.2120   -0.2650 C.2     1  UNL1        0.0040
     10  C          6.0740   -0.9110    1.4430 C.2     1  UNL1        0.0000
     11  C          5.3080    1.2740    1.0160 C.2     1  UNL1        0.0000
     12  C          5.4260    0.2210    1.8940 C.2     1  UNL1        0.0000
@<TRIPOS>BOND
     1     4     5    1
     2     4     2    1
     3     3     2    2
     4     2     1    1
     5     6     1    1
     6     6     7    1
     7     7     9    2
     8     7     8    1
     9     9    11    1
    10     8    10    2
    11    11    12    2
    12    10    12    1
