@<TRIPOS>MOLECULE
/home/cewinharhar/GITHUB/reincatalyze/data/processed/docking_pred/2023-Apr-25-2248_maxeplen10_maxtrainstep1000_exh16_gamma099_lrac3e-4_lrcr1e-3/895ea28dab147140afd805a2e235fc395d2e1c3a_ligand_2.pdbqt
 12 12 0 0 0
SMALL
GASTEIGER

@<TRIPOS>ATOM
      1  C          8.4040   -0.6690   -2.1220 C.3     1  UNL1        0.1270
      2  C          8.4000   -1.9320   -2.8820 C.2     1  UNL1        0.3030
      3  O          7.2970   -2.4270   -3.2400 O.2     1  UNL1       -0.2520
      4  O          9.5830   -2.6030   -3.2240 O.3     1  UNL1       -0.4810
      5  H         10.1520   -2.2290   -3.9710 H       1  UNL1        0.2960
      6  C          7.0430    0.0040   -2.1210 C.3     1  UNL1        0.0470
      7  C          6.4850    0.0740   -0.7450 C.2     1  UNL1       -0.0470
      8  C          5.7980    1.2010   -0.3170 C.2     1  UNL1        0.0040
      9  C          6.6220   -0.9520    0.1710 C.2     1  UNL1        0.0040
     10  C          5.2780    1.3010    0.9530 C.2     1  UNL1        0.0000
     11  C          6.1000   -0.8510    1.4430 C.2     1  UNL1        0.0000
     12  C          5.4210    0.2710    1.8610 C.2     1  UNL1        0.0000
@<TRIPOS>BOND
     1     5     4    1
     2     3     2    2
     3     4     2    1
     4     2     1    1
     5     1     6    1
     6     6     7    1
     7     7     8    2
     8     7     9    1
     9     8    10    1
    10     9    11    2
    11    10    12    2
    12    11    12    1
