MODEL 1
REMARK VINA RESULT:      -7.3      0.000      0.000
REMARK SMILES O=C(O)CCc1ccccc1
REMARK SMILES IDX 4 1 2 2 1 3 3 4 5 6 6 7 7 8 11 9 8 10 10 11 9 12
REMARK H PARENT 3 5
REMARK Flexibility Score: inf
ROOT
ATOM      1  C   UNL     1       8.418  -0.673  -2.108  1.00  0.00     0.127 C 
ENDROOT
BRANCH   1   2
ATOM      2  C   UNL     1       8.444  -1.920  -2.892  1.00  0.00     0.303 C 
ATOM      3  O   UNL     1       9.548  -2.495  -3.092  1.00  0.00    -0.252 OA
BRANCH   2   4
ATOM      4  O   UNL     1       7.280  -2.493  -3.425  1.00  0.00    -0.481 OA
ATOM      5  H   UNL     1       7.114  -3.479  -3.276  1.00  0.00     0.296 HD
ENDBRANCH   2   4
ENDBRANCH   1   2
BRANCH   1   6
ATOM      6  C   UNL     1       7.048  -0.020  -2.113  1.00  0.00     0.047 C 
BRANCH   6   7
ATOM      7  C   UNL     1       6.488   0.057  -0.739  1.00  0.00    -0.047 A 
ATOM      8  C   UNL     1       5.834   1.200  -0.303  1.00  0.00     0.004 A 
ATOM      9  C   UNL     1       6.593  -0.980   0.171  1.00  0.00     0.004 A 
ATOM     10  C   UNL     1       5.315   1.306   0.967  1.00  0.00     0.000 A 
ATOM     11  C   UNL     1       6.072  -0.873   1.442  1.00  0.00     0.000 A 
ATOM     12  C   UNL     1       5.426   0.266   1.867  1.00  0.00     0.000 A 
ENDBRANCH   6   7
ENDBRANCH   1   6
TORSDOF 4
ENDMDL
MODEL 2
REMARK VINA RESULT:      -7.3      0.090      1.723
REMARK SMILES O=C(O)CCc1ccccc1
REMARK SMILES IDX 4 1 2 2 1 3 3 4 5 6 6 7 7 8 11 9 8 10 10 11 9 12
REMARK H PARENT 3 5
REMARK Flexibility Score: inf
ROOT
ATOM      1  C   UNL     1       8.393  -0.659  -2.115  1.00  0.00     0.127 C 
ENDROOT
BRANCH   1   2
ATOM      2  C   UNL     1       8.399  -1.911  -2.892  1.00  0.00     0.303 C 
ATOM      3  O   UNL     1       7.300  -2.421  -3.240  1.00  0.00    -0.252 OA
BRANCH   2   4
ATOM      4  O   UNL     1       9.588  -2.557  -3.260  1.00  0.00    -0.481 OA
ATOM      5  H   UNL     1      10.201  -2.895  -2.530  1.00  0.00     0.296 HD
ENDBRANCH   2   4
ENDBRANCH   1   2
BRANCH   1   6
ATOM      6  C   UNL     1       7.032   0.013  -2.121  1.00  0.00     0.047 C 
BRANCH   6   7
ATOM      7  C   UNL     1       6.481   0.111  -0.744  1.00  0.00    -0.047 A 
ATOM      8  C   UNL     1       6.608  -0.946   0.146  1.00  0.00     0.004 A 
ATOM      9  C   UNL     1       5.816   1.232  -0.282  1.00  0.00     0.004 A 
ATOM     10  C   UNL     1       6.100  -0.890   1.424  1.00  0.00     0.000 A 
ATOM     11  C   UNL     1       5.307   1.286   0.998  1.00  0.00     0.000 A 
ATOM     12  C   UNL     1       5.436   0.233   1.875  1.00  0.00     0.000 A 
ENDBRANCH   6   7
ENDBRANCH   1   6
TORSDOF 4
ENDMDL
MODEL 3
REMARK VINA RESULT:      -6.8      3.392      5.080
REMARK SMILES O=C(O)CCc1ccccc1
REMARK SMILES IDX 4 1 2 2 1 3 3 4 5 6 6 7 7 8 11 9 8 10 10 11 9 12
REMARK H PARENT 3 5
REMARK Flexibility Score: inf
ROOT
ATOM      1  C   UNL     1       5.009   1.794   0.725  1.00  0.00     0.127 C 
ENDROOT
BRANCH   1   2
ATOM      2  C   UNL     1       4.472   1.120   1.920  1.00  0.00     0.303 C 
ATOM      3  O   UNL     1       5.150   0.209   2.467  1.00  0.00    -0.252 OA
BRANCH   2   4
ATOM      4  O   UNL     1       3.229   1.460   2.474  1.00  0.00    -0.481 OA
ATOM      5  H   UNL     1       2.828   0.848   3.173  1.00  0.00     0.296 HD
ENDBRANCH   2   4
ENDBRANCH   1   2
BRANCH   1   6
ATOM      6  C   UNL     1       6.524   1.887   0.751  1.00  0.00     0.047 C 
BRANCH   6   7
ATOM      7  C   UNL     1       7.127   1.068  -0.333  1.00  0.00    -0.047 A 
ATOM      8  C   UNL     1       8.469   1.204  -0.660  1.00  0.00     0.004 A 
ATOM      9  C   UNL     1       6.401   0.150  -1.069  1.00  0.00     0.004 A 
ATOM     10  C   UNL     1       9.054   0.468  -1.665  1.00  0.00     0.000 A 
ATOM     11  C   UNL     1       6.989  -0.586  -2.076  1.00  0.00     0.000 A 
ATOM     12  C   UNL     1       8.320  -0.444  -2.395  1.00  0.00     0.000 A 
ENDBRANCH   6   7
ENDBRANCH   1   6
TORSDOF 4
ENDMDL
MODEL 4
REMARK VINA RESULT:      -6.7      1.962      2.370
REMARK SMILES O=C(O)CCc1ccccc1
REMARK SMILES IDX 4 1 2 2 1 3 3 4 5 6 6 7 7 8 11 9 8 10 10 11 9 12
REMARK H PARENT 3 5
REMARK Flexibility Score: inf
ROOT
ATOM      1  C   UNL     1       8.308   0.252  -2.156  1.00  0.00     0.127 C 
ENDROOT
BRANCH   1   2
ATOM      2  C   UNL     1       9.414   0.372  -1.191  1.00  0.00     0.303 C 
ATOM      3  O   UNL     1       9.452  -0.408  -0.201  1.00  0.00    -0.252 OA
BRANCH   2   4
ATOM      4  O   UNL     1      10.432   1.326  -1.335  1.00  0.00    -0.481 OA
ATOM      5  H   UNL     1      10.904   1.399  -2.226  1.00  0.00     0.296 HD
ENDBRANCH   2   4
ENDBRANCH   1   2
BRANCH   1   6
ATOM      6  C   UNL     1       7.147  -0.554  -1.601  1.00  0.00     0.047 C 
BRANCH   6   7
ATOM      7  C   UNL     1       6.359   0.247  -0.629  1.00  0.00    -0.047 A 
ATOM      8  C   UNL     1       5.831   1.478  -0.989  1.00  0.00     0.004 A 
ATOM      9  C   UNL     1       6.119  -0.173   0.667  1.00  0.00     0.004 A 
ATOM     10  C   UNL     1       5.106   2.249  -0.109  1.00  0.00     0.000 A 
ATOM     11  C   UNL     1       5.392   0.599   1.547  1.00  0.00     0.000 A 
ATOM     12  C   UNL     1       4.873   1.821   1.182  1.00  0.00     0.000 A 
ENDBRANCH   6   7
ENDBRANCH   1   6
TORSDOF 4
ENDMDL
MODEL 5
REMARK VINA RESULT:      -6.6      3.811      4.987
REMARK SMILES O=C(O)CCc1ccccc1
REMARK SMILES IDX 4 1 2 2 1 3 3 4 5 6 6 7 7 8 11 9 8 10 10 11 9 12
REMARK H PARENT 3 5
REMARK Flexibility Score: inf
ROOT
ATOM      1  C   UNL     1       5.516   2.895   0.062  1.00  0.00     0.127 C 
ENDROOT
BRANCH   1   2
ATOM      2  C   UNL     1       6.296   3.854   0.864  1.00  0.00     0.303 C 
ATOM      3  O   UNL     1       6.987   4.728   0.272  1.00  0.00    -0.252 OA
BRANCH   2   4
ATOM      4  O   UNL     1       6.297   3.830   2.266  1.00  0.00    -0.481 OA
ATOM      5  H   UNL     1       7.014   4.345   2.758  1.00  0.00     0.296 HD
ENDBRANCH   2   4
ENDBRANCH   1   2
BRANCH   1   6
ATOM      6  C   UNL     1       4.898   1.802   0.915  1.00  0.00     0.047 C 
BRANCH   6   7
ATOM      7  C   UNL     1       5.754   0.588   0.928  1.00  0.00    -0.047 A 
ATOM      8  C   UNL     1       5.785  -0.245   2.038  1.00  0.00     0.004 A 
ATOM      9  C   UNL     1       6.561   0.229  -0.136  1.00  0.00     0.004 A 
ATOM     10  C   UNL     1       6.575  -1.370   2.086  1.00  0.00     0.000 A 
ATOM     11  C   UNL     1       7.352  -0.899  -0.087  1.00  0.00     0.000 A 
ATOM     12  C   UNL     1       7.378  -1.719   1.018  1.00  0.00     0.000 A 
ENDBRANCH   6   7
ENDBRANCH   1   6
TORSDOF 4
ENDMDL
