@<TRIPOS>MOLECULE
/home/cewinharhar/GITHUB/reincatalyze/data/processed/docking_pred/2023-Apr-25-2248_maxeplen10_maxtrainstep1000_exh16_gamma099_lrac3e-4_lrcr1e-3/8a11bcf53d23875e79cb17a52aa7b3de0dc85e7d_ligand_2.pdbqt
 12 12 0 0 0
SMALL
GASTEIGER

@<TRIPOS>ATOM
      1  C          8.3930   -0.6590   -2.1150 C.3     1  UNL1        0.1270
      2  C          8.3990   -1.9110   -2.8920 C.2     1  UNL1        0.3030
      3  O          7.3000   -2.4210   -3.2400 O.2     1  UNL1       -0.2520
      4  O          9.5880   -2.5570   -3.2600 O.3     1  UNL1       -0.4810
      5  H         10.2010   -2.8950   -2.5300 H       1  UNL1        0.2960
      6  C          7.0320    0.0130   -2.1210 C.3     1  UNL1        0.0470
      7  C          6.4810    0.1110   -0.7440 C.2     1  UNL1       -0.0470
      8  C          6.6080   -0.9460    0.1460 C.2     1  UNL1        0.0040
      9  C          5.8160    1.2320   -0.2820 C.2     1  UNL1        0.0040
     10  C          6.1000   -0.8900    1.4240 C.2     1  UNL1        0.0000
     11  C          5.3070    1.2860    0.9980 C.2     1  UNL1        0.0000
     12  C          5.4360    0.2330    1.8750 C.2     1  UNL1        0.0000
@<TRIPOS>BOND
     1     4     2    1
     2     4     5    1
     3     3     2    2
     4     2     1    1
     5     6     1    1
     6     6     7    1
     7     7     9    2
     8     7     8    1
     9     9    11    1
    10     8    10    2
    11    11    12    2
    12    10    12    1
