@<TRIPOS>MOLECULE
/home/cewinharhar/GITHUB/reincatalyze/data/processed/docking_pred/2023-Apr-25-2248_maxeplen10_maxtrainstep1000_exh16_gamma099_lrac3e-4_lrcr1e-3/8a11bcf53d23875e79cb17a52aa7b3de0dc85e7d_ligand_2.pdbqt
 12 12 0 0 0
SMALL
GASTEIGER

@<TRIPOS>ATOM
      1  C          5.0090    1.7940    0.7250 C.3     1  UNL1        0.1270
      2  C          4.4720    1.1200    1.9200 C.2     1  UNL1        0.3030
      3  O          5.1500    0.2090    2.4670 O.2     1  UNL1       -0.2520
      4  O          3.2290    1.4600    2.4740 O.3     1  UNL1       -0.4810
      5  H          2.8280    0.8480    3.1730 H       1  UNL1        0.2960
      6  C          6.5240    1.8870    0.7510 C.3     1  UNL1        0.0470
      7  C          7.1270    1.0680   -0.3330 C.2     1  UNL1       -0.0470
      8  C          8.4690    1.2040   -0.6600 C.2     1  UNL1        0.0040
      9  C          6.4010    0.1500   -1.0690 C.2     1  UNL1        0.0040
     10  C          9.0540    0.4680   -1.6650 C.2     1  UNL1        0.0000
     11  C          6.9890   -0.5860   -2.0760 C.2     1  UNL1        0.0000
     12  C          8.3200   -0.4440   -2.3950 C.2     1  UNL1        0.0000
@<TRIPOS>BOND
     1    12    11    2
     2    12    10    1
     3    11     9    1
     4    10     8    2
     5     9     7    2
     6     8     7    1
     7     7     6    1
     8     1     6    1
     9     1     2    1
    10     2     3    2
    11     2     4    1
    12     4     5    1
