@<TRIPOS>MOLECULE
/home/cewinharhar/GITHUB/reincatalyze/data/processed/docking_pred/2023-Apr-25-2248_maxeplen10_maxtrainstep1000_exh16_gamma099_lrac3e-4_lrcr1e-3/8a11bcf53d23875e79cb17a52aa7b3de0dc85e7d_ligand_2.pdbqt
 12 12 0 0 0
SMALL
GASTEIGER

@<TRIPOS>ATOM
      1  C          8.3080    0.2520   -2.1560 C.3     1  UNL1        0.1270
      2  C          9.4140    0.3720   -1.1910 C.2     1  UNL1        0.3030
      3  O          9.4520   -0.4080   -0.2010 O.2     1  UNL1       -0.2520
      4  O         10.4320    1.3260   -1.3350 O.3     1  UNL1       -0.4810
      5  H         10.9040    1.3990   -2.2260 H       1  UNL1        0.2960
      6  C          7.1470   -0.5540   -1.6010 C.3     1  UNL1        0.0470
      7  C          6.3590    0.2470   -0.6290 C.2     1  UNL1       -0.0470
      8  C          5.8310    1.4780   -0.9890 C.2     1  UNL1        0.0040
      9  C          6.1190   -0.1730    0.6670 C.2     1  UNL1        0.0040
     10  C          5.1060    2.2490   -0.1090 C.2     1  UNL1        0.0000
     11  C          5.3920    0.5990    1.5470 C.2     1  UNL1        0.0000
     12  C          4.8730    1.8210    1.1820 C.2     1  UNL1        0.0000
@<TRIPOS>BOND
     1     5     4    1
     2     1     6    1
     3     1     2    1
     4     6     7    1
     5     4     2    1
     6     2     3    2
     7     8     7    2
     8     8    10    1
     9     7     9    1
    10    10    12    2
    11     9    11    2
    12    12    11    1
