@<TRIPOS>MOLECULE
/home/cewinharhar/GITHUB/reincatalyze/data/processed/docking_pred/2023-Apr-25-2248_maxeplen10_maxtrainstep1000_exh16_gamma099_lrac3e-4_lrcr1e-3/8a11bcf53d23875e79cb17a52aa7b3de0dc85e7d_ligand_2.pdbqt
 12 12 0 0 0
SMALL
GASTEIGER

@<TRIPOS>ATOM
      1  C          5.5160    2.8950    0.0620 C.3     1  UNL1        0.1270
      2  C          6.2960    3.8540    0.8640 C.2     1  UNL1        0.3030
      3  O          6.9870    4.7280    0.2720 O.2     1  UNL1       -0.2520
      4  O          6.2970    3.8300    2.2660 O.3     1  UNL1       -0.4810
      5  H          7.0140    4.3450    2.7580 H       1  UNL1        0.2960
      6  C          4.8980    1.8020    0.9150 C.3     1  UNL1        0.0470
      7  C          5.7540    0.5880    0.9280 C.2     1  UNL1       -0.0470
      8  C          5.7850   -0.2450    2.0380 C.2     1  UNL1        0.0040
      9  C          6.5610    0.2290   -0.1360 C.2     1  UNL1        0.0040
     10  C          6.5750   -1.3700    2.0860 C.2     1  UNL1        0.0000
     11  C          7.3520   -0.8990   -0.0870 C.2     1  UNL1        0.0000
     12  C          7.3780   -1.7190    1.0180 C.2     1  UNL1        0.0000
@<TRIPOS>BOND
     1     9    11    1
     2     9     7    2
     3    11    12    2
     4     1     2    1
     5     1     6    1
     6     3     2    2
     7     2     4    1
     8     6     7    1
     9     7     8    1
    10    12    10    1
    11     8    10    2
    12     4     5    1
