@<TRIPOS>MOLECULE
/home/cewinharhar/GITHUB/reincatalyze/data/processed/docking_pred/2023-Apr-25-2248_maxeplen10_maxtrainstep1000_exh16_gamma099_lrac3e-4_lrcr1e-3/8a11bcf53d23875e79cb17a52aa7b3de0dc85e7d_ligand_2.pdbqt
 12 12 0 0 0
SMALL
GASTEIGER

@<TRIPOS>ATOM
      1  C          8.4180   -0.6730   -2.1080 C.3     1  UNL1        0.1270
      2  C          8.4440   -1.9200   -2.8920 C.2     1  UNL1        0.3030
      3  O          9.5480   -2.4950   -3.0920 O.2     1  UNL1       -0.2520
      4  O          7.2800   -2.4930   -3.4250 O.3     1  UNL1       -0.4810
      5  H          7.1140   -3.4790   -3.2760 H       1  UNL1        0.2960
      6  C          7.0480   -0.0200   -2.1130 C.3     1  UNL1        0.0470
      7  C          6.4880    0.0570   -0.7390 C.2     1  UNL1       -0.0470
      8  C          5.8340    1.2000   -0.3030 C.2     1  UNL1        0.0040
      9  C          6.5930   -0.9800    0.1710 C.2     1  UNL1        0.0040
     10  C          5.3150    1.3060    0.9670 C.2     1  UNL1        0.0000
     11  C          6.0720   -0.8730    1.4420 C.2     1  UNL1        0.0000
     12  C          5.4260    0.2660    1.8670 C.2     1  UNL1        0.0000
@<TRIPOS>BOND
     1     4     5    1
     2     4     2    1
     3     3     2    2
     4     2     1    1
     5     6     1    1
     6     6     7    1
     7     7     8    2
     8     7     9    1
     9     8    10    1
    10     9    11    2
    11    10    12    2
    12    11    12    1
