@<TRIPOS>MOLECULE
/home/cewinharhar/GITHUB/reincatalyze/data/processed/docking_pred/2023-Apr-25-2248_maxeplen10_maxtrainstep1000_exh16_gamma099_lrac3e-4_lrcr1e-3/8f258178c278a1f8efc989ef7d8625b520fa90c8_ligand_2.pdbqt
 12 12 0 0 0
SMALL
GASTEIGER

@<TRIPOS>ATOM
      1  C          8.3170    0.2810   -2.1350 C.3     1  UNL1        0.1270
      2  C          9.4200    0.3800   -1.1630 C.2     1  UNL1        0.3030
      3  O          9.4490   -0.4170   -0.1860 O.2     1  UNL1       -0.2520
      4  O         10.4430    1.3310   -1.2870 O.3     1  UNL1       -0.4810
      5  H         10.2240    2.3030   -1.1150 H       1  UNL1        0.2960
      6  C          7.1440   -0.5160   -1.5920 C.3     1  UNL1        0.0470
      7  C          6.3440    0.2970   -0.6390 C.2     1  UNL1       -0.0470
      8  C          5.7950    1.5100   -1.0300 C.2     1  UNL1        0.0040
      9  C          6.1140   -0.0940    0.6670 C.2     1  UNL1        0.0040
     10  C          5.0590    2.2900   -0.1680 C.2     1  UNL1        0.0000
     11  C          5.3760    0.6890    1.5290 C.2     1  UNL1        0.0000
     12  C          4.8360    1.8920    1.1340 C.2     1  UNL1        0.0000
@<TRIPOS>BOND
     1     1     6    1
     2     1     2    1
     3     6     7    1
     4     4     2    1
     5     4     5    1
     6     2     3    2
     7     8     7    2
     8     8    10    1
     9     7     9    1
    10    10    12    2
    11     9    11    2
    12    12    11    1
