@<TRIPOS>MOLECULE
/home/cewinharhar/GITHUB/reincatalyze/data/processed/docking_pred/2023-Apr-25-2248_maxeplen10_maxtrainstep1000_exh16_gamma099_lrac3e-4_lrcr1e-3/8f258178c278a1f8efc989ef7d8625b520fa90c8_ligand_2.pdbqt
 12 12 0 0 0
SMALL
GASTEIGER

@<TRIPOS>ATOM
      1  C          5.4990    2.9180    0.0670 C.3     1  UNL1        0.1270
      2  C          6.2840    3.8700    0.8730 C.2     1  UNL1        0.3030
      3  O          6.9380    4.7750    0.2870 O.2     1  UNL1       -0.2520
      4  O          6.3270    3.8060    2.2730 O.3     1  UNL1       -0.4810
      5  H          6.5620    4.6440    2.7880 H       1  UNL1        0.2960
      6  C          4.8750    1.8250    0.9160 C.3     1  UNL1        0.0470
      7  C          5.7310    0.6090    0.9310 C.2     1  UNL1       -0.0470
      8  C          6.5310    0.2930   -0.1580 C.2     1  UNL1        0.0040
      9  C          5.7720   -0.2630    2.0030 C.2     1  UNL1        0.0040
     10  C          7.3260   -0.8300   -0.1780 C.2     1  UNL1        0.0000
     11  C          6.5690   -1.3880    1.9810 C.2     1  UNL1        0.0000
     12  C          7.3590   -1.6960    0.8960 C.2     1  UNL1        0.0000
@<TRIPOS>BOND
     1    10     8    1
     2    10    12    2
     3     8     7    2
     4     1     2    1
     5     1     6    1
     6     3     2    2
     7     2     4    1
     8    12    11    1
     9     6     7    1
    10     7     9    1
    11    11     9    2
    12     4     5    1
