MODEL 1
REMARK VINA RESULT:      -7.3      0.000      0.000
REMARK SMILES O=C(O)CCc1ccccc1
REMARK SMILES IDX 4 1 2 2 1 3 3 4 5 6 6 7 7 8 11 9 8 10 10 11 9 12
REMARK H PARENT 3 5
REMARK Flexibility Score: inf
ROOT
ATOM      1  C   UNL     1       8.409  -0.604  -2.182  1.00  0.00     0.127 C 
ENDROOT
BRANCH   1   2
ATOM      2  C   UNL     1       8.450  -1.888  -2.904  1.00  0.00     0.303 C 
ATOM      3  O   UNL     1       9.561  -2.461  -3.071  1.00  0.00    -0.252 OA
BRANCH   2   4
ATOM      4  O   UNL     1       7.294  -2.497  -3.413  1.00  0.00    -0.481 OA
ATOM      5  H   UNL     1       6.463  -1.934  -3.532  1.00  0.00     0.296 HD
ENDBRANCH   2   4
ENDBRANCH   1   2
BRANCH   1   6
ATOM      6  C   UNL     1       7.019   0.008  -2.178  1.00  0.00     0.047 C 
BRANCH   6   7
ATOM      7  C   UNL     1       6.484   0.106  -0.795  1.00  0.00    -0.047 A 
ATOM      8  C   UNL     1       6.609  -0.957   0.089  1.00  0.00     0.004 A 
ATOM      9  C   UNL     1       5.835   1.231  -0.322  1.00  0.00     0.004 A 
ATOM     10  C   UNL     1       6.115  -0.901   1.372  1.00  0.00     0.000 A 
ATOM     11  C   UNL     1       5.341   1.285   0.964  1.00  0.00     0.000 A 
ATOM     12  C   UNL     1       5.468   0.227   1.835  1.00  0.00     0.000 A 
ENDBRANCH   6   7
ENDBRANCH   1   6
TORSDOF 4
ENDMDL
MODEL 2
REMARK VINA RESULT:      -7.3      0.140      1.725
REMARK SMILES O=C(O)CCc1ccccc1
REMARK SMILES IDX 4 1 2 2 1 3 3 4 5 6 6 7 7 8 11 9 8 10 10 11 9 12
REMARK H PARENT 3 5
REMARK Flexibility Score: inf
ROOT
ATOM      1  C   UNL     1       8.412  -0.719  -2.052  1.00  0.00     0.127 C 
ENDROOT
BRANCH   1   2
ATOM      2  C   UNL     1       8.401  -1.940  -2.876  1.00  0.00     0.303 C 
ATOM      3  O   UNL     1       7.295  -2.421  -3.245  1.00  0.00    -0.252 OA
BRANCH   2   4
ATOM      4  O   UNL     1       9.582  -2.588  -3.268  1.00  0.00    -0.481 OA
ATOM      5  H   UNL     1      10.315  -2.713  -2.583  1.00  0.00     0.296 HD
ENDBRANCH   2   4
ENDBRANCH   1   2
BRANCH   1   6
ATOM      6  C   UNL     1       7.079   0.007  -2.085  1.00  0.00     0.047 C 
BRANCH   6   7
ATOM      7  C   UNL     1       6.486   0.095  -0.724  1.00  0.00    -0.047 A 
ATOM      8  C   UNL     1       5.805   1.234  -0.321  1.00  0.00     0.004 A 
ATOM      9  C   UNL     1       6.586  -0.926   0.203  1.00  0.00     0.004 A 
ATOM     10  C   UNL     1       5.254   1.351   0.934  1.00  0.00     0.000 A 
ATOM     11  C   UNL     1       6.034  -0.808   1.460  1.00  0.00     0.000 A 
ATOM     12  C   UNL     1       5.360   0.326   1.853  1.00  0.00     0.000 A 
ENDBRANCH   6   7
ENDBRANCH   1   6
TORSDOF 4
ENDMDL
MODEL 3
REMARK VINA RESULT:      -6.8      3.391      5.083
REMARK SMILES O=C(O)CCc1ccccc1
REMARK SMILES IDX 4 1 2 2 1 3 3 4 5 6 6 7 7 8 11 9 8 10 10 11 9 12
REMARK H PARENT 3 5
REMARK Flexibility Score: inf
ROOT
ATOM      1  C   UNL     1       4.983   1.795   0.723  1.00  0.00     0.127 C 
ENDROOT
BRANCH   1   2
ATOM      2  C   UNL     1       4.468   1.115   1.925  1.00  0.00     0.303 C 
ATOM      3  O   UNL     1       5.165   0.212   2.463  1.00  0.00    -0.252 OA
BRANCH   2   4
ATOM      4  O   UNL     1       3.229   1.439   2.494  1.00  0.00    -0.481 OA
ATOM      5  H   UNL     1       2.395   1.328   1.933  1.00  0.00     0.296 HD
ENDBRANCH   2   4
ENDBRANCH   1   2
BRANCH   1   6
ATOM      6  C   UNL     1       6.496   1.925   0.740  1.00  0.00     0.047 C 
BRANCH   6   7
ATOM      7  C   UNL     1       7.113   1.105  -0.335  1.00  0.00    -0.047 A 
ATOM      8  C   UNL     1       8.464   1.226  -0.630  1.00  0.00     0.004 A 
ATOM      9  C   UNL     1       6.393   0.202  -1.095  1.00  0.00     0.004 A 
ATOM     10  C   UNL     1       9.063   0.490  -1.626  1.00  0.00     0.000 A 
ATOM     11  C   UNL     1       6.994  -0.535  -2.093  1.00  0.00     0.000 A 
ATOM     12  C   UNL     1       8.334  -0.408  -2.380  1.00  0.00     0.000 A 
ENDBRANCH   6   7
ENDBRANCH   1   6
TORSDOF 4
ENDMDL
MODEL 4
REMARK VINA RESULT:      -6.7      1.971      2.714
REMARK SMILES O=C(O)CCc1ccccc1
REMARK SMILES IDX 4 1 2 2 1 3 3 4 5 6 6 7 7 8 11 9 8 10 10 11 9 12
REMARK H PARENT 3 5
REMARK Flexibility Score: inf
ROOT
ATOM      1  C   UNL     1       8.317   0.281  -2.135  1.00  0.00     0.127 C 
ENDROOT
BRANCH   1   2
ATOM      2  C   UNL     1       9.420   0.380  -1.163  1.00  0.00     0.303 C 
ATOM      3  O   UNL     1       9.449  -0.417  -0.186  1.00  0.00    -0.252 OA
BRANCH   2   4
ATOM      4  O   UNL     1      10.443   1.331  -1.287  1.00  0.00    -0.481 OA
ATOM      5  H   UNL     1      10.224   2.303  -1.115  1.00  0.00     0.296 HD
ENDBRANCH   2   4
ENDBRANCH   1   2
BRANCH   1   6
ATOM      6  C   UNL     1       7.144  -0.516  -1.592  1.00  0.00     0.047 C 
BRANCH   6   7
ATOM      7  C   UNL     1       6.344   0.297  -0.639  1.00  0.00    -0.047 A 
ATOM      8  C   UNL     1       5.795   1.510  -1.030  1.00  0.00     0.004 A 
ATOM      9  C   UNL     1       6.114  -0.094   0.667  1.00  0.00     0.004 A 
ATOM     10  C   UNL     1       5.059   2.290  -0.168  1.00  0.00     0.000 A 
ATOM     11  C   UNL     1       5.376   0.689   1.529  1.00  0.00     0.000 A 
ATOM     12  C   UNL     1       4.836   1.892   1.134  1.00  0.00     0.000 A 
ENDBRANCH   6   7
ENDBRANCH   1   6
TORSDOF 4
ENDMDL
MODEL 5
REMARK VINA RESULT:      -6.6      3.823      4.989
REMARK SMILES O=C(O)CCc1ccccc1
REMARK SMILES IDX 4 1 2 2 1 3 3 4 5 6 6 7 7 8 11 9 8 10 10 11 9 12
REMARK H PARENT 3 5
REMARK Flexibility Score: inf
ROOT
ATOM      1  C   UNL     1       5.499   2.918   0.067  1.00  0.00     0.127 C 
ENDROOT
BRANCH   1   2
ATOM      2  C   UNL     1       6.284   3.870   0.873  1.00  0.00     0.303 C 
ATOM      3  O   UNL     1       6.938   4.775   0.287  1.00  0.00    -0.252 OA
BRANCH   2   4
ATOM      4  O   UNL     1       6.327   3.806   2.273  1.00  0.00    -0.481 OA
ATOM      5  H   UNL     1       6.562   4.644   2.788  1.00  0.00     0.296 HD
ENDBRANCH   2   4
ENDBRANCH   1   2
BRANCH   1   6
ATOM      6  C   UNL     1       4.875   1.825   0.916  1.00  0.00     0.047 C 
BRANCH   6   7
ATOM      7  C   UNL     1       5.731   0.609   0.931  1.00  0.00    -0.047 A 
ATOM      8  C   UNL     1       6.531   0.293  -0.158  1.00  0.00     0.004 A 
ATOM      9  C   UNL     1       5.772  -0.263   2.003  1.00  0.00     0.004 A 
ATOM     10  C   UNL     1       7.326  -0.830  -0.178  1.00  0.00     0.000 A 
ATOM     11  C   UNL     1       6.569  -1.388   1.981  1.00  0.00     0.000 A 
ATOM     12  C   UNL     1       7.359  -1.696   0.896  1.00  0.00     0.000 A 
ENDBRANCH   6   7
ENDBRANCH   1   6
TORSDOF 4
ENDMDL
