@<TRIPOS>MOLECULE
/home/cewinharhar/GITHUB/reincatalyze/data/processed/docking_pred/2023-Apr-25-2248_maxeplen10_maxtrainstep1000_exh16_gamma099_lrac3e-4_lrcr1e-3/8f258178c278a1f8efc989ef7d8625b520fa90c8_ligand_2.pdbqt
 12 12 0 0 0
SMALL
GASTEIGER

@<TRIPOS>ATOM
      1  C          8.4120   -0.7190   -2.0520 C.3     1  UNL1        0.1270
      2  C          8.4010   -1.9400   -2.8760 C.2     1  UNL1        0.3030
      3  O          7.2950   -2.4210   -3.2450 O.2     1  UNL1       -0.2520
      4  O          9.5820   -2.5880   -3.2680 O.3     1  UNL1       -0.4810
      5  H         10.3150   -2.7130   -2.5830 H       1  UNL1        0.2960
      6  C          7.0790    0.0070   -2.0850 C.3     1  UNL1        0.0470
      7  C          6.4860    0.0950   -0.7240 C.2     1  UNL1       -0.0470
      8  C          5.8050    1.2340   -0.3210 C.2     1  UNL1        0.0040
      9  C          6.5860   -0.9260    0.2030 C.2     1  UNL1        0.0040
     10  C          5.2540    1.3510    0.9340 C.2     1  UNL1        0.0000
     11  C          6.0340   -0.8080    1.4600 C.2     1  UNL1        0.0000
     12  C          5.3600    0.3260    1.8530 C.2     1  UNL1        0.0000
@<TRIPOS>BOND
     1     4     2    1
     2     4     5    1
     3     3     2    2
     4     2     1    1
     5     6     1    1
     6     6     7    1
     7     7     8    2
     8     7     9    1
     9     8    10    1
    10     9    11    2
    11    10    12    2
    12    11    12    1
