@<TRIPOS>MOLECULE
/home/cewinharhar/GITHUB/reincatalyze/data/processed/docking_pred/2023-Apr-25-2248_maxeplen10_maxtrainstep1000_exh16_gamma099_lrac3e-4_lrcr1e-3/8f258178c278a1f8efc989ef7d8625b520fa90c8_ligand_2.pdbqt
 12 12 0 0 0
SMALL
GASTEIGER

@<TRIPOS>ATOM
      1  C          8.4090   -0.6040   -2.1820 C.3     1  UNL1        0.1270
      2  C          8.4500   -1.8880   -2.9040 C.2     1  UNL1        0.3030
      3  O          9.5610   -2.4610   -3.0710 O.2     1  UNL1       -0.2520
      4  O          7.2940   -2.4970   -3.4130 O.3     1  UNL1       -0.4810
      5  H          6.4630   -1.9340   -3.5320 H       1  UNL1        0.2960
      6  C          7.0190    0.0080   -2.1780 C.3     1  UNL1        0.0470
      7  C          6.4840    0.1060   -0.7950 C.2     1  UNL1       -0.0470
      8  C          6.6090   -0.9570    0.0890 C.2     1  UNL1        0.0040
      9  C          5.8350    1.2310   -0.3220 C.2     1  UNL1        0.0040
     10  C          6.1150   -0.9010    1.3720 C.2     1  UNL1        0.0000
     11  C          5.3410    1.2850    0.9640 C.2     1  UNL1        0.0000
     12  C          5.4680    0.2270    1.8350 C.2     1  UNL1        0.0000
@<TRIPOS>BOND
     1     5     4    1
     2     4     2    1
     3     3     2    2
     4     2     1    1
     5     1     6    1
     6     6     7    1
     7     7     9    2
     8     7     8    1
     9     9    11    1
    10     8    10    2
    11    11    12    2
    12    10    12    1
