@<TRIPOS>MOLECULE
/home/cewinharhar/GITHUB/reincatalyze/data/processed/docking_pred/2023-Apr-25-2248_maxeplen10_maxtrainstep1000_exh16_gamma099_lrac3e-4_lrcr1e-3/8f258178c278a1f8efc989ef7d8625b520fa90c8_ligand_2.pdbqt
 12 12 0 0 0
SMALL
GASTEIGER

@<TRIPOS>ATOM
      1  C          4.9830    1.7950    0.7230 C.3     1  UNL1        0.1270
      2  C          4.4680    1.1150    1.9250 C.2     1  UNL1        0.3030
      3  O          5.1650    0.2120    2.4630 O.2     1  UNL1       -0.2520
      4  O          3.2290    1.4390    2.4940 O.3     1  UNL1       -0.4810
      5  H          2.3950    1.3280    1.9330 H       1  UNL1        0.2960
      6  C          6.4960    1.9250    0.7400 C.3     1  UNL1        0.0470
      7  C          7.1130    1.1050   -0.3350 C.2     1  UNL1       -0.0470
      8  C          8.4640    1.2260   -0.6300 C.2     1  UNL1        0.0040
      9  C          6.3930    0.2020   -1.0950 C.2     1  UNL1        0.0040
     10  C          9.0630    0.4900   -1.6260 C.2     1  UNL1        0.0000
     11  C          6.9940   -0.5350   -2.0930 C.2     1  UNL1        0.0000
     12  C          8.3340   -0.4080   -2.3800 C.2     1  UNL1        0.0000
@<TRIPOS>BOND
     1    12    11    2
     2    12    10    1
     3    11     9    1
     4    10     8    2
     5     9     7    2
     6     8     7    1
     7     7     6    1
     8     1     6    1
     9     1     2    1
    10     2     3    2
    11     2     4    1
    12     5     4    1
