MODEL 1
REMARK VINA RESULT:      -7.2      0.000      0.000
REMARK SMILES O=C(O)CCc1ccccc1
REMARK SMILES IDX 4 1 2 2 1 3 3 4 5 6 6 7 7 8 11 9 8 10 10 11 9 12
REMARK H PARENT 3 5
REMARK Flexibility Score: inf
ROOT
ATOM      1  C   UNL     1       8.401  -0.600  -2.188  1.00  0.00     0.127 C 
ENDROOT
BRANCH   1   2
ATOM      2  C   UNL     1       8.439  -1.885  -2.908  1.00  0.00     0.303 C 
ATOM      3  O   UNL     1       9.547  -2.466  -3.065  1.00  0.00    -0.252 OA
BRANCH   2   4
ATOM      4  O   UNL     1       7.283  -2.487  -3.425  1.00  0.00    -0.481 OA
ATOM      5  H   UNL     1       6.596  -1.902  -3.881  1.00  0.00     0.296 HD
ENDBRANCH   2   4
ENDBRANCH   1   2
BRANCH   1   6
ATOM      6  C   UNL     1       6.990  -0.055  -2.062  1.00  0.00     0.047 C 
BRANCH   6   7
ATOM      7  C   UNL     1       6.506  -0.148  -0.660  1.00  0.00    -0.047 A 
ATOM      8  C   UNL     1       5.754   0.875  -0.101  1.00  0.00     0.004 A 
ATOM      9  C   UNL     1       6.780  -1.231   0.156  1.00  0.00     0.004 A 
ATOM     10  C   UNL     1       5.300   0.824   1.197  1.00  0.00     0.000 A 
ATOM     11  C   UNL     1       6.324  -1.281   1.456  1.00  0.00     0.000 A 
ATOM     12  C   UNL     1       5.580  -0.261   2.003  1.00  0.00     0.000 A 
ENDBRANCH   6   7
ENDBRANCH   1   6
TORSDOF 4
ENDMDL
MODEL 2
REMARK VINA RESULT:      -7.2      0.110      1.723
REMARK SMILES O=C(O)CCc1ccccc1
REMARK SMILES IDX 4 1 2 2 1 3 3 4 5 6 6 7 7 8 11 9 8 10 10 11 9 12
REMARK H PARENT 3 5
REMARK Flexibility Score: inf
ROOT
ATOM      1  C   UNL     1       8.390  -0.633  -2.153  1.00  0.00     0.127 C 
ENDROOT
BRANCH   1   2
ATOM      2  C   UNL     1       8.399  -1.899  -2.908  1.00  0.00     0.303 C 
ATOM      3  O   UNL     1       7.300  -2.416  -3.248  1.00  0.00    -0.252 OA
BRANCH   2   4
ATOM      4  O   UNL     1       9.589  -2.549  -3.264  1.00  0.00    -0.481 OA
ATOM      5  H   UNL     1       9.670  -2.933  -4.196  1.00  0.00     0.296 HD
ENDBRANCH   2   4
ENDBRANCH   1   2
BRANCH   1   6
ATOM      6  C   UNL     1       7.000  -0.027  -2.065  1.00  0.00     0.047 C 
BRANCH   6   7
ATOM      7  C   UNL     1       6.485  -0.078  -0.672  1.00  0.00    -0.047 A 
ATOM      8  C   UNL     1       6.697  -1.197   0.121  1.00  0.00     0.004 A 
ATOM      9  C   UNL     1       5.771   0.959  -0.100  1.00  0.00     0.004 A 
ATOM     10  C   UNL     1       6.224  -1.278   1.411  1.00  0.00     0.000 A 
ATOM     11  C   UNL     1       5.297   0.876   1.192  1.00  0.00     0.000 A 
ATOM     12  C   UNL     1       5.511  -0.238   1.972  1.00  0.00     0.000 A 
ENDBRANCH   6   7
ENDBRANCH   1   6
TORSDOF 4
ENDMDL
MODEL 3
REMARK VINA RESULT:      -6.9      0.812      1.611
REMARK SMILES O=C(O)CCc1ccccc1
REMARK SMILES IDX 4 1 2 2 1 3 3 4 5 6 6 7 7 8 11 9 8 10 10 11 9 12
REMARK H PARENT 3 5
REMARK Flexibility Score: inf
ROOT
ATOM      1  C   UNL     1       8.037  -0.152  -2.668  1.00  0.00     0.127 C 
ENDROOT
BRANCH   1   2
ATOM      2  C   UNL     1       8.298  -1.572  -2.963  1.00  0.00     0.303 C 
ATOM      3  O   UNL     1       9.463  -2.027  -2.801  1.00  0.00    -0.252 OA
BRANCH   2   4
ATOM      4  O   UNL     1       7.293  -2.438  -3.418  1.00  0.00    -0.481 OA
ATOM      5  H   UNL     1       7.523  -3.110  -4.137  1.00  0.00     0.296 HD
ENDBRANCH   2   4
ENDBRANCH   1   2
BRANCH   1   6
ATOM      6  C   UNL     1       8.603   0.268  -1.323  1.00  0.00     0.047 C 
BRANCH   6   7
ATOM      7  C   UNL     1       7.564   0.195  -0.262  1.00  0.00    -0.047 A 
ATOM      8  C   UNL     1       7.744  -0.614   0.851  1.00  0.00     0.004 A 
ATOM      9  C   UNL     1       6.379   0.905  -0.325  1.00  0.00     0.004 A 
ATOM     10  C   UNL     1       6.797  -0.711   1.844  1.00  0.00     0.000 A 
ATOM     11  C   UNL     1       5.431   0.807   0.671  1.00  0.00     0.000 A 
ATOM     12  C   UNL     1       5.617   0.001   1.771  1.00  0.00     0.000 A 
ENDBRANCH   6   7
ENDBRANCH   1   6
TORSDOF 4
ENDMDL
MODEL 4
REMARK VINA RESULT:      -6.6      3.244      4.938
REMARK SMILES O=C(O)CCc1ccccc1
REMARK SMILES IDX 4 1 2 2 1 3 3 4 5 6 6 7 7 8 11 9 8 10 10 11 9 12
REMARK H PARENT 3 5
REMARK Flexibility Score: inf
ROOT
ATOM      1  C   UNL     1       5.150   1.235   0.662  1.00  0.00     0.127 C 
ENDROOT
BRANCH   1   2
ATOM      2  C   UNL     1       4.792   0.623   1.953  1.00  0.00     0.303 C 
ATOM      3  O   UNL     1       5.565  -0.236   2.459  1.00  0.00    -0.252 OA
BRANCH   2   4
ATOM      4  O   UNL     1       3.620   0.964   2.643  1.00  0.00    -0.481 OA
ATOM      5  H   UNL     1       3.679   1.640   3.392  1.00  0.00     0.296 HD
ENDBRANCH   2   4
ENDBRANCH   1   2
BRANCH   1   6
ATOM      6  C   UNL     1       6.639   1.509   0.549  1.00  0.00     0.047 C 
BRANCH   6   7
ATOM      7  C   UNL     1       7.256   0.672  -0.512  1.00  0.00    -0.047 A 
ATOM      8  C   UNL     1       8.551   0.918  -0.945  1.00  0.00     0.004 A 
ATOM      9  C   UNL     1       6.588  -0.373  -1.124  1.00  0.00     0.004 A 
ATOM     10  C   UNL     1       9.147   0.168  -1.933  1.00  0.00     0.000 A 
ATOM     11  C   UNL     1       7.186  -1.124  -2.113  1.00  0.00     0.000 A 
ATOM     12  C   UNL     1       8.471  -0.872  -2.538  1.00  0.00     0.000 A 
ENDBRANCH   6   7
ENDBRANCH   1   6
TORSDOF 4
ENDMDL
MODEL 5
REMARK VINA RESULT:      -6.6      3.211      4.999
REMARK SMILES O=C(O)CCc1ccccc1
REMARK SMILES IDX 4 1 2 2 1 3 3 4 5 6 6 7 7 8 11 9 8 10 10 11 9 12
REMARK H PARENT 3 5
REMARK Flexibility Score: inf
ROOT
ATOM      1  C   UNL     1       5.874  -0.691   1.713  1.00  0.00     0.127 C 
ENDROOT
BRANCH   1   2
ATOM      2  C   UNL     1       5.215   0.606   1.949  1.00  0.00     0.303 C 
ATOM      3  O   UNL     1       4.068   0.623   2.473  1.00  0.00    -0.252 OA
BRANCH   2   4
ATOM      4  O   UNL     1       5.821   1.825   1.613  1.00  0.00    -0.481 OA
ATOM      5  H   UNL     1       6.354   2.312   2.321  1.00  0.00     0.296 HD
ENDBRANCH   2   4
ENDBRANCH   1   2
BRANCH   1   6
ATOM      6  C   UNL     1       7.365  -0.541   1.466  1.00  0.00     0.047 C 
BRANCH   6   7
ATOM      7  C   UNL     1       7.654  -0.417   0.014  1.00  0.00    -0.047 A 
ATOM      8  C   UNL     1       6.952  -1.173  -0.915  1.00  0.00     0.004 A 
ATOM      9  C   UNL     1       8.625   0.431  -0.487  1.00  0.00     0.004 A 
ATOM     10  C   UNL     1       7.203  -1.089  -2.265  1.00  0.00     0.000 A 
ATOM     11  C   UNL     1       8.875   0.514  -1.840  1.00  0.00     0.000 A 
ATOM     12  C   UNL     1       8.175  -0.240  -2.754  1.00  0.00     0.000 A 
ENDBRANCH   6   7
ENDBRANCH   1   6
TORSDOF 4
ENDMDL
