@<TRIPOS>MOLECULE
/home/cewinharhar/GITHUB/reincatalyze/data/processed/docking_pred/2023-Apr-25-2248_maxeplen10_maxtrainstep1000_exh16_gamma099_lrac3e-4_lrcr1e-3/8f3f3cc121b2e0b9b67c9595347d7d2b0dd21437_ligand_2.pdbqt
 12 12 0 0 0
SMALL
GASTEIGER

@<TRIPOS>ATOM
      1  C          8.0370   -0.1520   -2.6680 C.3     1  UNL1        0.1270
      2  C          8.2980   -1.5720   -2.9630 C.2     1  UNL1        0.3030
      3  O          9.4630   -2.0270   -2.8010 O.2     1  UNL1       -0.2520
      4  O          7.2930   -2.4380   -3.4180 O.3     1  UNL1       -0.4810
      5  H          7.5230   -3.1100   -4.1370 H       1  UNL1        0.2960
      6  C          8.6030    0.2680   -1.3230 C.3     1  UNL1        0.0470
      7  C          7.5640    0.1950   -0.2620 C.2     1  UNL1       -0.0470
      8  C          7.7440   -0.6140    0.8510 C.2     1  UNL1        0.0040
      9  C          6.3790    0.9050   -0.3250 C.2     1  UNL1        0.0040
     10  C          6.7970   -0.7110    1.8440 C.2     1  UNL1        0.0000
     11  C          5.4310    0.8070    0.6710 C.2     1  UNL1        0.0000
     12  C          5.6170    0.0010    1.7710 C.2     1  UNL1        0.0000
@<TRIPOS>BOND
     1     5     4    1
     2     4     2    1
     3     2     3    2
     4     2     1    1
     5     1     6    1
     6     6     7    1
     7     9     7    2
     8     9    11    1
     9     7     8    1
    10    11    12    2
    11     8    10    2
    12    12    10    1
