@<TRIPOS>MOLECULE
/home/cewinharhar/GITHUB/reincatalyze/data/processed/docking_pred/2023-Apr-25-2248_maxeplen10_maxtrainstep1000_exh16_gamma099_lrac3e-4_lrcr1e-3/8f3f3cc121b2e0b9b67c9595347d7d2b0dd21437_ligand_2.pdbqt
 12 12 0 0 0
SMALL
GASTEIGER

@<TRIPOS>ATOM
      1  C          8.4010   -0.6000   -2.1880 C.3     1  UNL1        0.1270
      2  C          8.4390   -1.8850   -2.9080 C.2     1  UNL1        0.3030
      3  O          9.5470   -2.4660   -3.0650 O.2     1  UNL1       -0.2520
      4  O          7.2830   -2.4870   -3.4250 O.3     1  UNL1       -0.4810
      5  H          6.5960   -1.9020   -3.8810 H       1  UNL1        0.2960
      6  C          6.9900   -0.0550   -2.0620 C.3     1  UNL1        0.0470
      7  C          6.5060   -0.1480   -0.6600 C.2     1  UNL1       -0.0470
      8  C          5.7540    0.8750   -0.1010 C.2     1  UNL1        0.0040
      9  C          6.7800   -1.2310    0.1560 C.2     1  UNL1        0.0040
     10  C          5.3000    0.8240    1.1970 C.2     1  UNL1        0.0000
     11  C          6.3240   -1.2810    1.4560 C.2     1  UNL1        0.0000
     12  C          5.5800   -0.2610    2.0030 C.2     1  UNL1        0.0000
@<TRIPOS>BOND
     1     5     4    1
     2     4     2    1
     3     3     2    2
     4     2     1    1
     5     1     6    1
     6     6     7    1
     7     7     8    2
     8     7     9    1
     9     8    10    1
    10     9    11    2
    11    10    12    2
    12    11    12    1
