@<TRIPOS>MOLECULE
/home/cewinharhar/GITHUB/reincatalyze/data/processed/docking_pred/2023-Apr-25-2248_maxeplen10_maxtrainstep1000_exh16_gamma099_lrac3e-4_lrcr1e-3/8f3f3cc121b2e0b9b67c9595347d7d2b0dd21437_ligand_2.pdbqt
 12 12 0 0 0
SMALL
GASTEIGER

@<TRIPOS>ATOM
      1  C          5.8740   -0.6910    1.7130 C.3     1  UNL1        0.1270
      2  C          5.2150    0.6060    1.9490 C.2     1  UNL1        0.3030
      3  O          4.0680    0.6230    2.4730 O.2     1  UNL1       -0.2520
      4  O          5.8210    1.8250    1.6130 O.3     1  UNL1       -0.4810
      5  H          6.3540    2.3120    2.3210 H       1  UNL1        0.2960
      6  C          7.3650   -0.5410    1.4660 C.3     1  UNL1        0.0470
      7  C          7.6540   -0.4170    0.0140 C.2     1  UNL1       -0.0470
      8  C          6.9520   -1.1730   -0.9150 C.2     1  UNL1        0.0040
      9  C          8.6250    0.4310   -0.4870 C.2     1  UNL1        0.0040
     10  C          7.2030   -1.0890   -2.2650 C.2     1  UNL1        0.0000
     11  C          8.8750    0.5140   -1.8400 C.2     1  UNL1        0.0000
     12  C          8.1750   -0.2400   -2.7540 C.2     1  UNL1        0.0000
@<TRIPOS>BOND
     1    12    10    2
     2    12    11    1
     3    10     8    1
     4    11     9    2
     5     8     7    2
     6     9     7    1
     7     7     6    1
     8     6     1    1
     9     4     2    1
    10     4     5    1
    11     1     2    1
    12     2     3    2
