@<TRIPOS>MOLECULE
/home/cewinharhar/GITHUB/reincatalyze/data/processed/docking_pred/2023-Apr-25-2248_maxeplen10_maxtrainstep1000_exh16_gamma099_lrac3e-4_lrcr1e-3/8f3f3cc121b2e0b9b67c9595347d7d2b0dd21437_ligand_2.pdbqt
 12 12 0 0 0
SMALL
GASTEIGER

@<TRIPOS>ATOM
      1  C          8.3900   -0.6330   -2.1530 C.3     1  UNL1        0.1270
      2  C          8.3990   -1.8990   -2.9080 C.2     1  UNL1        0.3030
      3  O          7.3000   -2.4160   -3.2480 O.2     1  UNL1       -0.2520
      4  O          9.5890   -2.5490   -3.2640 O.3     1  UNL1       -0.4810
      5  H          9.6700   -2.9330   -4.1960 H       1  UNL1        0.2960
      6  C          7.0000   -0.0270   -2.0650 C.3     1  UNL1        0.0470
      7  C          6.4850   -0.0780   -0.6720 C.2     1  UNL1       -0.0470
      8  C          6.6970   -1.1970    0.1210 C.2     1  UNL1        0.0040
      9  C          5.7710    0.9590   -0.1000 C.2     1  UNL1        0.0040
     10  C          6.2240   -1.2780    1.4110 C.2     1  UNL1        0.0000
     11  C          5.2970    0.8760    1.1920 C.2     1  UNL1        0.0000
     12  C          5.5110   -0.2380    1.9720 C.2     1  UNL1        0.0000
@<TRIPOS>BOND
     1     5     4    1
     2     4     2    1
     3     3     2    2
     4     2     1    1
     5     1     6    1
     6     6     7    1
     7     7     9    2
     8     7     8    1
     9     9    11    1
    10     8    10    2
    11    11    12    2
    12    10    12    1
