@<TRIPOS>MOLECULE
/home/cewinharhar/GITHUB/reincatalyze/data/processed/docking_pred/2023-Apr-25-2248_maxeplen10_maxtrainstep1000_exh16_gamma099_lrac3e-4_lrcr1e-3/8f3f3cc121b2e0b9b67c9595347d7d2b0dd21437_ligand_2.pdbqt
 12 12 0 0 0
SMALL
GASTEIGER

@<TRIPOS>ATOM
      1  C          5.1500    1.2350    0.6620 C.3     1  UNL1        0.1270
      2  C          4.7920    0.6230    1.9530 C.2     1  UNL1        0.3030
      3  O          5.5650   -0.2360    2.4590 O.2     1  UNL1       -0.2520
      4  O          3.6200    0.9640    2.6430 O.3     1  UNL1       -0.4810
      5  H          3.6790    1.6400    3.3920 H       1  UNL1        0.2960
      6  C          6.6390    1.5090    0.5490 C.3     1  UNL1        0.0470
      7  C          7.2560    0.6720   -0.5120 C.2     1  UNL1       -0.0470
      8  C          8.5510    0.9180   -0.9450 C.2     1  UNL1        0.0040
      9  C          6.5880   -0.3730   -1.1240 C.2     1  UNL1        0.0040
     10  C          9.1470    0.1680   -1.9330 C.2     1  UNL1        0.0000
     11  C          7.1860   -1.1240   -2.1130 C.2     1  UNL1        0.0000
     12  C          8.4710   -0.8720   -2.5380 C.2     1  UNL1        0.0000
@<TRIPOS>BOND
     1    12    11    2
     2    12    10    1
     3    11     9    1
     4    10     8    2
     5     9     7    2
     6     8     7    1
     7     7     6    1
     8     6     1    1
     9     1     2    1
    10     2     3    2
    11     2     4    1
    12     4     5    1
