@<TRIPOS>MOLECULE
/home/cewinharhar/GITHUB/reincatalyze/data/processed/docking_pred/2023-Apr-25-2248_maxeplen10_maxtrainstep1000_exh16_gamma099_lrac3e-4_lrcr1e-3/8f7c925e970cb887b69f6e81c5db99fda922d0ae_ligand_2.pdbqt
 12 12 0 0 0
SMALL
GASTEIGER

@<TRIPOS>ATOM
      1  C          5.4940    2.9160    0.0610 C.3     1  UNL1        0.1270
      2  C          6.2760    3.8870    0.8460 C.2     1  UNL1        0.3030
      3  O          6.9360    4.7750    0.2410 O.2     1  UNL1       -0.2520
      4  O          6.3110    3.8600    2.2480 O.3     1  UNL1       -0.4810
      5  H          5.8740    3.0840    2.7280 H       1  UNL1        0.2960
      6  C          4.8680    1.8430    0.9340 C.3     1  UNL1        0.0470
      7  C          5.6990    0.6110    0.9420 C.2     1  UNL1       -0.0470
      8  C          5.7370   -0.2090    2.0610 C.2     1  UNL1        0.0040
      9  C          6.4730    0.2230   -0.1360 C.2     1  UNL1        0.0040
     10  C          6.5040   -1.3500    2.1030 C.2     1  UNL1        0.0000
     11  C          7.2410   -0.9200   -0.0920 C.2     1  UNL1        0.0000
     12  C          7.2750   -1.7280    1.0220 C.2     1  UNL1        0.0000
@<TRIPOS>BOND
     1     9    11    1
     2     9     7    2
     3    11    12    2
     4     1     2    1
     5     1     6    1
     6     3     2    2
     7     2     4    1
     8     6     7    1
     9     7     8    1
    10    12    10    1
    11     8    10    2
    12     4     5    1
