MODEL 1
REMARK VINA RESULT:      -7.4      0.000      0.000
REMARK SMILES O=C(O)CCc1ccccc1
REMARK SMILES IDX 4 1 2 2 1 3 3 4 5 6 6 7 7 8 11 9 8 10 10 11 9 12
REMARK H PARENT 3 5
REMARK Flexibility Score: inf
ROOT
ATOM      1  C   UNL     1       8.415  -0.713  -2.054  1.00  0.00     0.127 C 
ENDROOT
BRANCH   1   2
ATOM      2  C   UNL     1       8.444  -1.935  -2.877  1.00  0.00     0.303 C 
ATOM      3  O   UNL     1       9.550  -2.501  -3.094  1.00  0.00    -0.252 OA
BRANCH   2   4
ATOM      4  O   UNL     1       7.281  -2.494  -3.427  1.00  0.00    -0.481 OA
ATOM      5  H   UNL     1       6.708  -1.921  -4.031  1.00  0.00     0.296 HD
ENDBRANCH   2   4
ENDBRANCH   1   2
BRANCH   1   6
ATOM      6  C   UNL     1       7.062  -0.024  -2.098  1.00  0.00     0.047 C 
BRANCH   6   7
ATOM      7  C   UNL     1       6.485   0.101  -0.734  1.00  0.00    -0.047 A 
ATOM      8  C   UNL     1       6.589  -0.940   0.177  1.00  0.00     0.004 A 
ATOM      9  C   UNL     1       5.815   1.233  -0.306  1.00  0.00     0.004 A 
ATOM     10  C   UNL     1       6.056  -0.859   1.443  1.00  0.00     0.000 A 
ATOM     11  C   UNL     1       5.282   1.313   0.963  1.00  0.00     0.000 A 
ATOM     12  C   UNL     1       5.389   0.275   1.861  1.00  0.00     0.000 A 
ENDBRANCH   6   7
ENDBRANCH   1   6
TORSDOF 4
ENDMDL
MODEL 2
REMARK VINA RESULT:      -7.3      0.121      1.725
REMARK SMILES O=C(O)CCc1ccccc1
REMARK SMILES IDX 4 1 2 2 1 3 3 4 5 6 6 7 7 8 11 9 8 10 10 11 9 12
REMARK H PARENT 3 5
REMARK Flexibility Score: inf
ROOT
ATOM      1  C   UNL     1       8.424  -0.645  -2.138  1.00  0.00     0.127 C 
ENDROOT
BRANCH   1   2
ATOM      2  C   UNL     1       8.403  -1.913  -2.889  1.00  0.00     0.303 C 
ATOM      3  O   UNL     1       7.294  -2.395  -3.244  1.00  0.00    -0.252 OA
BRANCH   2   4
ATOM      4  O   UNL     1       9.577  -2.603  -3.224  1.00  0.00    -0.481 OA
ATOM      5  H   UNL     1      10.450  -2.300  -2.813  1.00  0.00     0.296 HD
ENDBRANCH   2   4
ENDBRANCH   1   2
BRANCH   1   6
ATOM      6  C   UNL     1       7.080   0.060  -2.162  1.00  0.00     0.047 C 
BRANCH   6   7
ATOM      7  C   UNL     1       6.496   0.142  -0.798  1.00  0.00    -0.047 A 
ATOM      8  C   UNL     1       5.792   1.268  -0.396  1.00  0.00     0.004 A 
ATOM      9  C   UNL     1       6.627  -0.871   0.134  1.00  0.00     0.004 A 
ATOM     10  C   UNL     1       5.250   1.379   0.863  1.00  0.00     0.000 A 
ATOM     11  C   UNL     1       6.083  -0.758   1.396  1.00  0.00     0.000 A 
ATOM     12  C   UNL     1       5.386   0.363   1.787  1.00  0.00     0.000 A 
ENDBRANCH   6   7
ENDBRANCH   1   6
TORSDOF 4
ENDMDL
MODEL 3
REMARK VINA RESULT:      -6.8      3.360      5.069
REMARK SMILES O=C(O)CCc1ccccc1
REMARK SMILES IDX 4 1 2 2 1 3 3 4 5 6 6 7 7 8 11 9 8 10 10 11 9 12
REMARK H PARENT 3 5
REMARK Flexibility Score: inf
ROOT
ATOM      1  C   UNL     1       5.052   1.722   0.755  1.00  0.00     0.127 C 
ENDROOT
BRANCH   1   2
ATOM      2  C   UNL     1       4.574   1.021   1.959  1.00  0.00     0.303 C 
ATOM      3  O   UNL     1       5.310   0.146   2.492  1.00  0.00    -0.252 OA
BRANCH   2   4
ATOM      4  O   UNL     1       3.326   1.294   2.537  1.00  0.00    -0.481 OA
ATOM      5  H   UNL     1       3.119   0.906   3.448  1.00  0.00     0.296 HD
ENDBRANCH   2   4
ENDBRANCH   1   2
BRANCH   1   6
ATOM      6  C   UNL     1       6.564   1.859   0.733  1.00  0.00     0.047 C 
BRANCH   6   7
ATOM      7  C   UNL     1       7.158   1.042  -0.357  1.00  0.00    -0.047 A 
ATOM      8  C   UNL     1       8.499   1.168  -0.686  1.00  0.00     0.004 A 
ATOM      9  C   UNL     1       6.422   0.134  -1.098  1.00  0.00     0.004 A 
ATOM     10  C   UNL     1       9.076   0.433  -1.697  1.00  0.00     0.000 A 
ATOM     11  C   UNL     1       7.001  -0.601  -2.109  1.00  0.00     0.000 A 
ATOM     12  C   UNL     1       8.333  -0.469  -2.431  1.00  0.00     0.000 A 
ENDBRANCH   6   7
ENDBRANCH   1   6
TORSDOF 4
ENDMDL
MODEL 4
REMARK VINA RESULT:      -6.7      3.827      4.951
REMARK SMILES O=C(O)CCc1ccccc1
REMARK SMILES IDX 4 1 2 2 1 3 3 4 5 6 6 7 7 8 11 9 8 10 10 11 9 12
REMARK H PARENT 3 5
REMARK Flexibility Score: inf
ROOT
ATOM      1  C   UNL     1       5.494   2.916   0.061  1.00  0.00     0.127 C 
ENDROOT
BRANCH   1   2
ATOM      2  C   UNL     1       6.276   3.887   0.846  1.00  0.00     0.303 C 
ATOM      3  O   UNL     1       6.936   4.775   0.241  1.00  0.00    -0.252 OA
BRANCH   2   4
ATOM      4  O   UNL     1       6.311   3.860   2.248  1.00  0.00    -0.481 OA
ATOM      5  H   UNL     1       5.874   3.084   2.728  1.00  0.00     0.296 HD
ENDBRANCH   2   4
ENDBRANCH   1   2
BRANCH   1   6
ATOM      6  C   UNL     1       4.868   1.843   0.934  1.00  0.00     0.047 C 
BRANCH   6   7
ATOM      7  C   UNL     1       5.699   0.611   0.942  1.00  0.00    -0.047 A 
ATOM      8  C   UNL     1       5.737  -0.209   2.061  1.00  0.00     0.004 A 
ATOM      9  C   UNL     1       6.473   0.223  -0.136  1.00  0.00     0.004 A 
ATOM     10  C   UNL     1       6.504  -1.350   2.103  1.00  0.00     0.000 A 
ATOM     11  C   UNL     1       7.241  -0.920  -0.092  1.00  0.00     0.000 A 
ATOM     12  C   UNL     1       7.275  -1.728   1.022  1.00  0.00     0.000 A 
ENDBRANCH   6   7
ENDBRANCH   1   6
TORSDOF 4
ENDMDL
MODEL 5
REMARK VINA RESULT:      -6.6      1.979      2.900
REMARK SMILES O=C(O)CCc1ccccc1
REMARK SMILES IDX 4 1 2 2 1 3 3 4 5 6 6 7 7 8 11 9 8 10 10 11 9 12
REMARK H PARENT 3 5
REMARK Flexibility Score: inf
ROOT
ATOM      1  C   UNL     1       8.311  -1.722   1.197  1.00  0.00     0.127 C 
ENDROOT
BRANCH   1   2
ATOM      2  C   UNL     1       8.694  -2.953   0.482  1.00  0.00     0.303 C 
ATOM      3  O   UNL     1       9.420  -3.801   1.069  1.00  0.00    -0.252 OA
BRANCH   2   4
ATOM      4  O   UNL     1       8.276  -3.217  -0.830  1.00  0.00    -0.481 OA
ATOM      5  H   UNL     1       7.471  -2.722  -1.190  1.00  0.00     0.296 HD
ENDBRANCH   2   4
ENDBRANCH   1   2
BRANCH   1   6
ATOM      6  C   UNL     1       6.816  -1.645   1.446  1.00  0.00     0.047 C 
BRANCH   6   7
ATOM      7  C   UNL     1       6.249  -0.384   0.901  1.00  0.00    -0.047 A 
ATOM      8  C   UNL     1       6.515   0.006  -0.404  1.00  0.00     0.004 A 
ATOM      9  C   UNL     1       5.450   0.463   1.648  1.00  0.00     0.004 A 
ATOM     10  C   UNL     1       6.014   1.172  -0.935  1.00  0.00     0.000 A 
ATOM     11  C   UNL     1       4.950   1.631   1.115  1.00  0.00     0.000 A 
ATOM     12  C   UNL     1       5.219   2.011  -0.180  1.00  0.00     0.000 A 
ENDBRANCH   6   7
ENDBRANCH   1   6
TORSDOF 4
ENDMDL
