@<TRIPOS>MOLECULE
/home/cewinharhar/GITHUB/reincatalyze/data/processed/docking_pred/2023-Apr-25-2248_maxeplen10_maxtrainstep1000_exh16_gamma099_lrac3e-4_lrcr1e-3/8f7c925e970cb887b69f6e81c5db99fda922d0ae_ligand_2.pdbqt
 12 12 0 0 0
SMALL
GASTEIGER

@<TRIPOS>ATOM
      1  C          5.0520    1.7220    0.7550 C.3     1  UNL1        0.1270
      2  C          4.5740    1.0210    1.9590 C.2     1  UNL1        0.3030
      3  O          5.3100    0.1460    2.4920 O.2     1  UNL1       -0.2520
      4  O          3.3260    1.2940    2.5370 O.3     1  UNL1       -0.4810
      5  H          3.1190    0.9060    3.4480 H       1  UNL1        0.2960
      6  C          6.5640    1.8590    0.7330 C.3     1  UNL1        0.0470
      7  C          7.1580    1.0420   -0.3570 C.2     1  UNL1       -0.0470
      8  C          8.4990    1.1680   -0.6860 C.2     1  UNL1        0.0040
      9  C          6.4220    0.1340   -1.0980 C.2     1  UNL1        0.0040
     10  C          9.0760    0.4330   -1.6970 C.2     1  UNL1        0.0000
     11  C          7.0010   -0.6010   -2.1090 C.2     1  UNL1        0.0000
     12  C          8.3330   -0.4690   -2.4310 C.2     1  UNL1        0.0000
@<TRIPOS>BOND
     1    12    11    2
     2    12    10    1
     3    11     9    1
     4    10     8    2
     5     9     7    2
     6     8     7    1
     7     7     6    1
     8     6     1    1
     9     1     2    1
    10     2     3    2
    11     2     4    1
    12     4     5    1
