@<TRIPOS>MOLECULE
/home/cewinharhar/GITHUB/reincatalyze/data/processed/docking_pred/2023-Apr-25-2248_maxeplen10_maxtrainstep1000_exh16_gamma099_lrac3e-4_lrcr1e-3/8f7c925e970cb887b69f6e81c5db99fda922d0ae_ligand_2.pdbqt
 12 12 0 0 0
SMALL
GASTEIGER

@<TRIPOS>ATOM
      1  C          8.3110   -1.7220    1.1970 C.3     1  UNL1        0.1270
      2  C          8.6940   -2.9530    0.4820 C.2     1  UNL1        0.3030
      3  O          9.4200   -3.8010    1.0690 O.2     1  UNL1       -0.2520
      4  O          8.2760   -3.2170   -0.8300 O.3     1  UNL1       -0.4810
      5  H          7.4710   -2.7220   -1.1900 H       1  UNL1        0.2960
      6  C          6.8160   -1.6450    1.4460 C.3     1  UNL1        0.0470
      7  C          6.2490   -0.3840    0.9010 C.2     1  UNL1       -0.0470
      8  C          6.5150    0.0060   -0.4040 C.2     1  UNL1        0.0040
      9  C          5.4500    0.4630    1.6480 C.2     1  UNL1        0.0040
     10  C          6.0140    1.1720   -0.9350 C.2     1  UNL1        0.0000
     11  C          4.9500    1.6310    1.1150 C.2     1  UNL1        0.0000
     12  C          5.2190    2.0110   -0.1800 C.2     1  UNL1        0.0000
@<TRIPOS>BOND
     1     5     4    1
     2    10     8    1
     3    10    12    2
     4     4     2    1
     5     8     7    2
     6    12    11    1
     7     2     3    2
     8     2     1    1
     9     7     6    1
    10     7     9    1
    11    11     9    2
    12     1     6    1
