@<TRIPOS>MOLECULE
/home/cewinharhar/GITHUB/reincatalyze/data/processed/docking_pred/2023-Apr-25-2248_maxeplen10_maxtrainstep1000_exh16_gamma099_lrac3e-4_lrcr1e-3/8f7c925e970cb887b69f6e81c5db99fda922d0ae_ligand_2.pdbqt
 12 12 0 0 0
SMALL
GASTEIGER

@<TRIPOS>ATOM
      1  C          8.4150   -0.7130   -2.0540 C.3     1  UNL1        0.1270
      2  C          8.4440   -1.9350   -2.8770 C.2     1  UNL1        0.3030
      3  O          9.5500   -2.5010   -3.0940 O.2     1  UNL1       -0.2520
      4  O          7.2810   -2.4940   -3.4270 O.3     1  UNL1       -0.4810
      5  H          6.7080   -1.9210   -4.0310 H       1  UNL1        0.2960
      6  C          7.0620   -0.0240   -2.0980 C.3     1  UNL1        0.0470
      7  C          6.4850    0.1010   -0.7340 C.2     1  UNL1       -0.0470
      8  C          6.5890   -0.9400    0.1770 C.2     1  UNL1        0.0040
      9  C          5.8150    1.2330   -0.3060 C.2     1  UNL1        0.0040
     10  C          6.0560   -0.8590    1.4430 C.2     1  UNL1        0.0000
     11  C          5.2820    1.3130    0.9630 C.2     1  UNL1        0.0000
     12  C          5.3890    0.2750    1.8610 C.2     1  UNL1        0.0000
@<TRIPOS>BOND
     1     5     4    1
     2     4     2    1
     3     3     2    2
     4     2     1    1
     5     6     1    1
     6     6     7    1
     7     7     9    2
     8     7     8    1
     9     9    11    1
    10     8    10    2
    11    11    12    2
    12    10    12    1
