@<TRIPOS>MOLECULE
/home/cewinharhar/GITHUB/reincatalyze/data/processed/docking_pred/2023-Apr-25-2248_maxeplen10_maxtrainstep1000_exh16_gamma099_lrac3e-4_lrcr1e-3/8f7c925e970cb887b69f6e81c5db99fda922d0ae_ligand_2.pdbqt
 12 12 0 0 0
SMALL
GASTEIGER

@<TRIPOS>ATOM
      1  C          8.4240   -0.6450   -2.1380 C.3     1  UNL1        0.1270
      2  C          8.4030   -1.9130   -2.8890 C.2     1  UNL1        0.3030
      3  O          7.2940   -2.3950   -3.2440 O.2     1  UNL1       -0.2520
      4  O          9.5770   -2.6030   -3.2240 O.3     1  UNL1       -0.4810
      5  H         10.4500   -2.3000   -2.8130 H       1  UNL1        0.2960
      6  C          7.0800    0.0600   -2.1620 C.3     1  UNL1        0.0470
      7  C          6.4960    0.1420   -0.7980 C.2     1  UNL1       -0.0470
      8  C          5.7920    1.2680   -0.3960 C.2     1  UNL1        0.0040
      9  C          6.6270   -0.8710    0.1340 C.2     1  UNL1        0.0040
     10  C          5.2500    1.3790    0.8630 C.2     1  UNL1        0.0000
     11  C          6.0830   -0.7580    1.3960 C.2     1  UNL1        0.0000
     12  C          5.3860    0.3630    1.7870 C.2     1  UNL1        0.0000
@<TRIPOS>BOND
     1     3     2    2
     2     4     2    1
     3     4     5    1
     4     2     1    1
     5     6     1    1
     6     6     7    1
     7     7     8    2
     8     7     9    1
     9     8    10    1
    10     9    11    2
    11    10    12    2
    12    11    12    1
