@<TRIPOS>MOLECULE
/home/cewinharhar/GITHUB/reincatalyze/data/processed/docking_pred/2023-Apr-25-2248_maxeplen10_maxtrainstep1000_exh16_gamma099_lrac3e-4_lrcr1e-3/8f7e92428ebbeefdf44ae8ea1c0956f20f305f25_ligand_2.pdbqt
 12 12 0 0 0
SMALL
GASTEIGER

@<TRIPOS>ATOM
      1  C          5.5230    2.9000    0.0490 C.3     1  UNL1        0.1270
      2  C          6.2870    3.8790    0.8430 C.2     1  UNL1        0.3030
      3  O          6.9420    4.7750    0.2450 O.2     1  UNL1       -0.2520
      4  O          6.3100    3.8500    2.2450 O.3     1  UNL1       -0.4810
      5  H          7.0550    3.3450    2.7060 H       1  UNL1        0.2960
      6  C          4.8500    1.8540    0.9200 C.3     1  UNL1        0.0470
      7  C          5.6440    0.5980    0.9540 C.2     1  UNL1       -0.0470
      8  C          6.3030    0.1470   -0.1800 C.2     1  UNL1        0.0040
      9  C          5.7610   -0.1830    2.0890 C.2     1  UNL1        0.0040
     10  C          7.0370   -1.0170   -0.1840 C.2     1  UNL1        0.0000
     11  C          6.4970   -1.3480    2.0840 C.2     1  UNL1        0.0000
     12  C          7.1470   -1.7900    0.9540 C.2     1  UNL1        0.0000
@<TRIPOS>BOND
     1    10     8    1
     2    10    12    2
     3     8     7    2
     4     1     2    1
     5     1     6    1
     6     3     2    2
     7     2     4    1
     8     6     7    1
     9     7     9    1
    10    12    11    1
    11    11     9    2
    12     4     5    1
