@<TRIPOS>MOLECULE
/home/cewinharhar/GITHUB/reincatalyze/data/processed/docking_pred/2023-Apr-25-2248_maxeplen10_maxtrainstep1000_exh16_gamma099_lrac3e-4_lrcr1e-3/8f7e92428ebbeefdf44ae8ea1c0956f20f305f25_ligand_2.pdbqt
 12 12 0 0 0
SMALL
GASTEIGER

@<TRIPOS>ATOM
      1  C          8.3330   -0.9770   -1.7620 C.3     1  UNL1        0.1270
      2  C          8.3670   -2.0130   -2.8090 C.2     1  UNL1        0.3030
      3  O          7.2800   -2.4250   -3.2980 O.2     1  UNL1       -0.2520
      4  O          9.5690   -2.5590   -3.2820 O.3     1  UNL1       -0.4810
      5  H          9.9830   -3.3290   -2.7760 H       1  UNL1        0.2960
      6  C          7.5850   -1.4370   -0.5230 C.3     1  UNL1        0.0470
      7  C          6.6730   -0.3730   -0.0260 C.2     1  UNL1       -0.0470
      8  C          6.3240    0.6960   -0.8380 C.2     1  UNL1        0.0040
      9  C          6.1400   -0.3800    1.2500 C.2     1  UNL1        0.0040
     10  C          5.4910    1.7020   -0.4040 C.2     1  UNL1        0.0000
     11  C          5.3060    0.6280    1.6830 C.2     1  UNL1        0.0000
     12  C          4.9650    1.6860    0.8720 C.2     1  UNL1        0.0000
@<TRIPOS>BOND
     1     3     2    2
     2     4     2    1
     3     4     5    1
     4     2     1    1
     5     1     6    1
     6     8    10    1
     7     8     7    2
     8     6     7    1
     9    10    12    2
    10     7     9    1
    11    12    11    1
    12     9    11    2
