@<TRIPOS>MOLECULE
/home/cewinharhar/GITHUB/reincatalyze/data/processed/docking_pred/2023-Apr-25-2248_maxeplen10_maxtrainstep1000_exh16_gamma099_lrac3e-4_lrcr1e-3/8f7e92428ebbeefdf44ae8ea1c0956f20f305f25_ligand_2.pdbqt
 12 12 0 0 0
SMALL
GASTEIGER

@<TRIPOS>ATOM
      1  C          4.9890    1.7720    0.7090 C.3     1  UNL1        0.1270
      2  C          4.4700    1.1140    1.9220 C.2     1  UNL1        0.3030
      3  O          5.1630    0.2190    2.4760 O.2     1  UNL1       -0.2520
      4  O          3.2300    1.4520    2.4830 O.3     1  UNL1       -0.4810
      5  H          2.7580    0.7670    3.0590 H       1  UNL1        0.2960
      6  C          6.4980    1.9280    0.7420 C.3     1  UNL1        0.0470
      7  C          7.1400    1.1350   -0.3380 C.2     1  UNL1       -0.0470
      8  C          6.3960    0.2450   -1.1000 C.2     1  UNL1        0.0040
      9  C          8.4870    1.2260   -0.6350 C.2     1  UNL1        0.0040
     10  C          6.9620   -0.5120   -2.1000 C.2     1  UNL1        0.0000
     11  C          9.0530    0.4680   -1.6370 C.2     1  UNL1        0.0000
     12  C          8.3090   -0.4140   -2.3870 C.2     1  UNL1        0.0000
@<TRIPOS>BOND
     1    12    10    2
     2    12    11    1
     3    10     8    1
     4    11     9    2
     5     8     7    2
     6     9     7    1
     7     7     6    1
     8     1     6    1
     9     1     2    1
    10     2     3    2
    11     2     4    1
    12     4     5    1
