@<TRIPOS>MOLECULE
/home/cewinharhar/GITHUB/reincatalyze/data/processed/docking_pred/2023-Apr-25-2248_maxeplen10_maxtrainstep1000_exh16_gamma099_lrac3e-4_lrcr1e-3/8f7e92428ebbeefdf44ae8ea1c0956f20f305f25_ligand_2.pdbqt
 12 12 0 0 0
SMALL
GASTEIGER

@<TRIPOS>ATOM
      1  C          8.4060   -0.7290   -2.0460 C.3     1  UNL1        0.1270
      2  C          8.3950   -1.9510   -2.8700 C.2     1  UNL1        0.3030
      3  O          7.2900   -2.4200   -3.2540 O.2     1  UNL1       -0.2520
      4  O          9.5750   -2.6100   -3.2440 O.3     1  UNL1       -0.4810
      5  H          9.8450   -2.6010   -4.2180 H       1  UNL1        0.2960
      6  C          7.0760    0.0030   -2.0880 C.3     1  UNL1        0.0470
      7  C          6.4800    0.1010   -0.7300 C.2     1  UNL1       -0.0470
      8  C          5.7890    1.2400   -0.3410 C.2     1  UNL1        0.0040
      9  C          6.5850   -0.9090    0.2090 C.2     1  UNL1        0.0040
     10  C          5.2350    1.3670    0.9120 C.2     1  UNL1        0.0000
     11  C          6.0290   -0.7800    1.4640 C.2     1  UNL1        0.0000
     12  C          5.3460    0.3530    1.8430 C.2     1  UNL1        0.0000
@<TRIPOS>BOND
     1     5     4    1
     2     3     2    2
     3     4     2    1
     4     2     1    1
     5     6     1    1
     6     6     7    1
     7     7     8    2
     8     7     9    1
     9     8    10    1
    10     9    11    2
    11    10    12    2
    12    11    12    1
