@<TRIPOS>MOLECULE
/home/cewinharhar/GITHUB/reincatalyze/data/processed/docking_pred/2023-Apr-25-2248_maxeplen10_maxtrainstep1000_exh16_gamma099_lrac3e-4_lrcr1e-3/91438d65c636cbfd2c8442c68b92b155f88758ee_ligand_2.pdbqt
 12 12 0 0 0
SMALL
GASTEIGER

@<TRIPOS>ATOM
      1  C          8.0720   -2.0980    0.8790 C.3     1  UNL1        0.1270
      2  C          8.3320   -3.5410    1.0280 C.2     1  UNL1        0.3030
      3  O          9.4470   -4.0030    0.6640 O.2     1  UNL1       -0.2520
      4  O          7.3810   -4.4200    1.5650 O.3     1  UNL1       -0.4810
      5  H          6.7130   -4.8510    0.9390 H       1  UNL1        0.2960
      6  C          6.7850   -1.6730    1.5620 C.3     1  UNL1        0.0470
      7  C          6.2510   -0.4230    0.9610 C.2     1  UNL1       -0.0470
      8  C          6.5470   -0.0860   -0.3520 C.2     1  UNL1        0.0040
      9  C          5.4530    0.4630    1.6620 C.2     1  UNL1        0.0040
     10  C          6.0760    1.0690   -0.9340 C.2     1  UNL1        0.0000
     11  C          4.9830    1.6200    1.0770 C.2     1  UNL1        0.0000
     12  C          5.2820    1.9480   -0.2260 C.2     1  UNL1        0.0000
@<TRIPOS>BOND
     1    10     8    1
     2    10    12    2
     3     8     7    2
     4    12    11    1
     5     3     2    2
     6     1     2    1
     7     1     6    1
     8     5     4    1
     9     7     6    1
    10     7     9    1
    11     2     4    1
    12    11     9    2
