@<TRIPOS>MOLECULE
/home/cewinharhar/GITHUB/reincatalyze/data/processed/docking_pred/2023-Apr-25-2248_maxeplen10_maxtrainstep1000_exh16_gamma099_lrac3e-4_lrcr1e-3/91438d65c636cbfd2c8442c68b92b155f88758ee_ligand_2.pdbqt
 12 12 0 0 0
SMALL
GASTEIGER

@<TRIPOS>ATOM
      1  C          8.4010   -0.6070   -2.1830 C.3     1  UNL1        0.1270
      2  C          8.4520   -1.8870   -2.9130 C.2     1  UNL1        0.3030
      3  O          9.5650   -2.4560   -3.0730 O.2     1  UNL1       -0.2520
      4  O          7.3010   -2.4960   -3.4340 O.3     1  UNL1       -0.4810
      5  H          6.4380   -1.9710   -3.4430 H       1  UNL1        0.2960
      6  C          7.0060   -0.0090   -2.1710 C.3     1  UNL1        0.0470
      7  C          6.4820    0.0910   -0.7840 C.2     1  UNL1       -0.0470
      8  C          6.6110   -0.9710    0.1000 C.2     1  UNL1        0.0040
      9  C          5.8390    1.2190   -0.3050 C.2     1  UNL1        0.0040
     10  C          6.1280   -0.9130    1.3870 C.2     1  UNL1        0.0000
     11  C          5.3550    1.2750    0.9840 C.2     1  UNL1        0.0000
     12  C          5.4870    0.2170    1.8540 C.2     1  UNL1        0.0000
@<TRIPOS>BOND
     1     5     4    1
     2     4     2    1
     3     3     2    2
     4     2     1    1
     5     1     6    1
     6     6     7    1
     7     7     9    2
     8     7     8    1
     9     9    11    1
    10     8    10    2
    11    11    12    2
    12    10    12    1
