@<TRIPOS>MOLECULE
/home/cewinharhar/GITHUB/reincatalyze/data/processed/docking_pred/2023-Apr-25-2248_maxeplen10_maxtrainstep1000_exh16_gamma099_lrac3e-4_lrcr1e-3/91438d65c636cbfd2c8442c68b92b155f88758ee_ligand_2.pdbqt
 12 12 0 0 0
SMALL
GASTEIGER

@<TRIPOS>ATOM
      1  C          8.3990   -0.5990   -2.2080 C.3     1  UNL1        0.1270
      2  C          8.4290   -1.8900   -2.9170 C.2     1  UNL1        0.3030
      3  O          9.5320   -2.4830   -3.0620 O.2     1  UNL1       -0.2520
      4  O          7.2700   -2.4860   -3.4350 O.3     1  UNL1       -0.4810
      5  H          7.3670   -3.3180   -4.0020 H       1  UNL1        0.2960
      6  C          7.0030   -0.0030   -2.1590 C.3     1  UNL1        0.0470
      7  C          6.4860    0.0290   -0.7660 C.2     1  UNL1       -0.0470
      8  C          5.8350    1.1530   -0.2790 C.2     1  UNL1        0.0040
      9  C          6.6300   -1.0310    0.1100 C.2     1  UNL1        0.0040
     10  C          5.3550    1.2190    1.0090 C.2     1  UNL1        0.0000
     11  C          6.1480   -0.9640    1.4000 C.2     1  UNL1        0.0000
     12  C          5.5040    0.1550    1.8760 C.2     1  UNL1        0.0000
@<TRIPOS>BOND
     1     5     4    1
     2     4     2    1
     3     3     2    2
     4     2     1    1
     5     1     6    1
     6     6     7    1
     7     7     8    2
     8     7     9    1
     9     8    10    1
    10     9    11    2
    11    10    12    2
    12    11    12    1
