@<TRIPOS>MOLECULE
/home/cewinharhar/GITHUB/reincatalyze/data/processed/docking_pred/2023-Apr-25-2248_maxeplen10_maxtrainstep1000_exh16_gamma099_lrac3e-4_lrcr1e-3/91438d65c636cbfd2c8442c68b92b155f88758ee_ligand_2.pdbqt
 12 12 0 0 0
SMALL
GASTEIGER

@<TRIPOS>ATOM
      1  C          4.9960    1.7960    0.7670 C.3     1  UNL1        0.1270
      2  C          4.4450    1.1130    1.9510 C.2     1  UNL1        0.3030
      3  O          5.1130    0.1880    2.4890 O.2     1  UNL1       -0.2520
      4  O          3.2020    1.4560    2.5020 O.3     1  UNL1       -0.4810
      5  H          2.9320    2.4300    2.5160 H       1  UNL1        0.2960
      6  C          6.5090    1.9000    0.8160 C.3     1  UNL1        0.0470
      7  C          7.1320    1.1310   -0.2930 C.2     1  UNL1       -0.0470
      8  C          6.3860    0.2210   -1.0300 C.2     1  UNL1        0.0040
      9  C          8.4630    1.2660   -0.6430 C.2     1  UNL1        0.0040
     10  C          6.9360   -0.5130   -2.0550 C.2     1  UNL1        0.0000
     11  C          9.0120    0.5300   -1.6710 C.2     1  UNL1        0.0000
     12  C          8.2660   -0.3720   -2.3960 C.2     1  UNL1        0.0000
@<TRIPOS>BOND
     1    12    10    2
     2    12    11    1
     3    10     8    1
     4    11     9    2
     5     8     7    2
     6     9     7    1
     7     7     6    1
     8     1     6    1
     9     1     2    1
    10     2     3    2
    11     2     4    1
    12     4     5    1
