MODEL 1
REMARK VINA RESULT:      -7.2      0.000      0.000
REMARK SMILES O=C(O)CCc1ccccc1
REMARK SMILES IDX 4 1 2 2 1 3 3 4 5 6 6 7 7 8 11 9 8 10 10 11 9 12
REMARK H PARENT 3 5
REMARK Flexibility Score: inf
ROOT
ATOM      1  C   UNL     1       8.401  -0.607  -2.183  1.00  0.00     0.127 C 
ENDROOT
BRANCH   1   2
ATOM      2  C   UNL     1       8.452  -1.887  -2.913  1.00  0.00     0.303 C 
ATOM      3  O   UNL     1       9.565  -2.456  -3.073  1.00  0.00    -0.252 OA
BRANCH   2   4
ATOM      4  O   UNL     1       7.301  -2.496  -3.434  1.00  0.00    -0.481 OA
ATOM      5  H   UNL     1       6.438  -1.971  -3.443  1.00  0.00     0.296 HD
ENDBRANCH   2   4
ENDBRANCH   1   2
BRANCH   1   6
ATOM      6  C   UNL     1       7.006  -0.009  -2.171  1.00  0.00     0.047 C 
BRANCH   6   7
ATOM      7  C   UNL     1       6.482   0.091  -0.784  1.00  0.00    -0.047 A 
ATOM      8  C   UNL     1       6.611  -0.971   0.100  1.00  0.00     0.004 A 
ATOM      9  C   UNL     1       5.839   1.219  -0.305  1.00  0.00     0.004 A 
ATOM     10  C   UNL     1       6.128  -0.913   1.387  1.00  0.00     0.000 A 
ATOM     11  C   UNL     1       5.355   1.275   0.984  1.00  0.00     0.000 A 
ATOM     12  C   UNL     1       5.487   0.217   1.854  1.00  0.00     0.000 A 
ENDBRANCH   6   7
ENDBRANCH   1   6
TORSDOF 4
ENDMDL
MODEL 2
REMARK VINA RESULT:      -7.2      0.052      1.421
REMARK SMILES O=C(O)CCc1ccccc1
REMARK SMILES IDX 4 1 2 2 1 3 3 4 5 6 6 7 7 8 11 9 8 10 10 11 9 12
REMARK H PARENT 3 5
REMARK Flexibility Score: inf
ROOT
ATOM      1  C   UNL     1       8.399  -0.599  -2.208  1.00  0.00     0.127 C 
ENDROOT
BRANCH   1   2
ATOM      2  C   UNL     1       8.429  -1.890  -2.917  1.00  0.00     0.303 C 
ATOM      3  O   UNL     1       9.532  -2.483  -3.062  1.00  0.00    -0.252 OA
BRANCH   2   4
ATOM      4  O   UNL     1       7.270  -2.486  -3.435  1.00  0.00    -0.481 OA
ATOM      5  H   UNL     1       7.367  -3.318  -4.002  1.00  0.00     0.296 HD
ENDBRANCH   2   4
ENDBRANCH   1   2
BRANCH   1   6
ATOM      6  C   UNL     1       7.003  -0.003  -2.159  1.00  0.00     0.047 C 
BRANCH   6   7
ATOM      7  C   UNL     1       6.486   0.029  -0.766  1.00  0.00    -0.047 A 
ATOM      8  C   UNL     1       5.835   1.153  -0.279  1.00  0.00     0.004 A 
ATOM      9  C   UNL     1       6.630  -1.031   0.110  1.00  0.00     0.004 A 
ATOM     10  C   UNL     1       5.355   1.219   1.009  1.00  0.00     0.000 A 
ATOM     11  C   UNL     1       6.148  -0.964   1.400  1.00  0.00     0.000 A 
ATOM     12  C   UNL     1       5.504   0.155   1.876  1.00  0.00     0.000 A 
ENDBRANCH   6   7
ENDBRANCH   1   6
TORSDOF 4
ENDMDL
MODEL 3
REMARK VINA RESULT:      -7.1      2.460      3.271
REMARK SMILES O=C(O)CCc1ccccc1
REMARK SMILES IDX 4 1 2 2 1 3 3 4 5 6 6 7 7 8 11 9 8 10 10 11 9 12
REMARK H PARENT 3 5
REMARK Flexibility Score: inf
ROOT
ATOM      1  C   UNL     1       8.072  -2.098   0.879  1.00  0.00     0.127 C 
ENDROOT
BRANCH   1   2
ATOM      2  C   UNL     1       8.332  -3.541   1.028  1.00  0.00     0.303 C 
ATOM      3  O   UNL     1       9.447  -4.003   0.664  1.00  0.00    -0.252 OA
BRANCH   2   4
ATOM      4  O   UNL     1       7.381  -4.420   1.565  1.00  0.00    -0.481 OA
ATOM      5  H   UNL     1       6.713  -4.851   0.939  1.00  0.00     0.296 HD
ENDBRANCH   2   4
ENDBRANCH   1   2
BRANCH   1   6
ATOM      6  C   UNL     1       6.785  -1.673   1.562  1.00  0.00     0.047 C 
BRANCH   6   7
ATOM      7  C   UNL     1       6.251  -0.423   0.961  1.00  0.00    -0.047 A 
ATOM      8  C   UNL     1       6.547  -0.086  -0.352  1.00  0.00     0.004 A 
ATOM      9  C   UNL     1       5.453   0.463   1.662  1.00  0.00     0.004 A 
ATOM     10  C   UNL     1       6.076   1.069  -0.934  1.00  0.00     0.000 A 
ATOM     11  C   UNL     1       4.983   1.620   1.077  1.00  0.00     0.000 A 
ATOM     12  C   UNL     1       5.282   1.948  -0.226  1.00  0.00     0.000 A 
ENDBRANCH   6   7
ENDBRANCH   1   6
TORSDOF 4
ENDMDL
MODEL 4
REMARK VINA RESULT:      -6.7      3.413      5.083
REMARK SMILES O=C(O)CCc1ccccc1
REMARK SMILES IDX 4 1 2 2 1 3 3 4 5 6 6 7 7 8 11 9 8 10 10 11 9 12
REMARK H PARENT 3 5
REMARK Flexibility Score: inf
ROOT
ATOM      1  C   UNL     1       4.996   1.796   0.767  1.00  0.00     0.127 C 
ENDROOT
BRANCH   1   2
ATOM      2  C   UNL     1       4.445   1.113   1.951  1.00  0.00     0.303 C 
ATOM      3  O   UNL     1       5.113   0.188   2.489  1.00  0.00    -0.252 OA
BRANCH   2   4
ATOM      4  O   UNL     1       3.202   1.456   2.502  1.00  0.00    -0.481 OA
ATOM      5  H   UNL     1       2.932   2.430   2.516  1.00  0.00     0.296 HD
ENDBRANCH   2   4
ENDBRANCH   1   2
BRANCH   1   6
ATOM      6  C   UNL     1       6.509   1.900   0.816  1.00  0.00     0.047 C 
BRANCH   6   7
ATOM      7  C   UNL     1       7.132   1.131  -0.293  1.00  0.00    -0.047 A 
ATOM      8  C   UNL     1       6.386   0.221  -1.030  1.00  0.00     0.004 A 
ATOM      9  C   UNL     1       8.463   1.266  -0.643  1.00  0.00     0.004 A 
ATOM     10  C   UNL     1       6.936  -0.513  -2.055  1.00  0.00     0.000 A 
ATOM     11  C   UNL     1       9.012   0.530  -1.671  1.00  0.00     0.000 A 
ATOM     12  C   UNL     1       8.266  -0.372  -2.396  1.00  0.00     0.000 A 
ENDBRANCH   6   7
ENDBRANCH   1   6
TORSDOF 4
ENDMDL
MODEL 5
REMARK VINA RESULT:      -6.5      2.054      2.741
REMARK SMILES O=C(O)CCc1ccccc1
REMARK SMILES IDX 4 1 2 2 1 3 3 4 5 6 6 7 7 8 11 9 8 10 10 11 9 12
REMARK H PARENT 3 5
REMARK Flexibility Score: inf
ROOT
ATOM      1  C   UNL     1       8.476   0.649  -1.689  1.00  0.00     0.127 C 
ENDROOT
BRANCH   1   2
ATOM      2  C   UNL     1       9.630   0.290  -0.846  1.00  0.00     0.303 C 
ATOM      3  O   UNL     1       9.465  -0.523   0.103  1.00  0.00    -0.252 OA
BRANCH   2   4
ATOM      4  O   UNL     1      10.909   0.822  -1.063  1.00  0.00    -0.481 OA
ATOM      5  H   UNL     1      11.653   0.566  -0.429  1.00  0.00     0.296 HD
ENDBRANCH   2   4
ENDBRANCH   1   2
BRANCH   1   6
ATOM      6  C   UNL     1       7.284  -0.261  -1.449  1.00  0.00     0.047 C 
BRANCH   6   7
ATOM      7  C   UNL     1       6.403   0.285  -0.384  1.00  0.00    -0.047 A 
ATOM      8  C   UNL     1       5.772   1.510  -0.547  1.00  0.00     0.004 A 
ATOM      9  C   UNL     1       6.174  -0.376   0.809  1.00  0.00     0.004 A 
ATOM     10  C   UNL     1       4.959   2.047   0.425  1.00  0.00     0.000 A 
ATOM     11  C   UNL     1       5.359   0.164   1.781  1.00  0.00     0.000 A 
ATOM     12  C   UNL     1       4.737   1.380   1.613  1.00  0.00     0.000 A 
ENDBRANCH   6   7
ENDBRANCH   1   6
TORSDOF 4
ENDMDL
