@<TRIPOS>MOLECULE
/home/cewinharhar/GITHUB/reincatalyze/data/processed/docking_pred/2023-Apr-25-2248_maxeplen10_maxtrainstep1000_exh16_gamma099_lrac3e-4_lrcr1e-3/91438d65c636cbfd2c8442c68b92b155f88758ee_ligand_2.pdbqt
 12 12 0 0 0
SMALL
GASTEIGER

@<TRIPOS>ATOM
      1  C          8.4760    0.6490   -1.6890 C.3     1  UNL1        0.1270
      2  C          9.6300    0.2900   -0.8460 C.2     1  UNL1        0.3030
      3  O          9.4650   -0.5230    0.1030 O.2     1  UNL1       -0.2520
      4  O         10.9090    0.8220   -1.0630 O.3     1  UNL1       -0.4810
      5  H         11.6530    0.5660   -0.4290 H       1  UNL1        0.2960
      6  C          7.2840   -0.2610   -1.4490 C.3     1  UNL1        0.0470
      7  C          6.4030    0.2850   -0.3840 C.2     1  UNL1       -0.0470
      8  C          5.7720    1.5100   -0.5470 C.2     1  UNL1        0.0040
      9  C          6.1740   -0.3760    0.8090 C.2     1  UNL1        0.0040
     10  C          4.9590    2.0470    0.4250 C.2     1  UNL1        0.0000
     11  C          5.3590    0.1640    1.7810 C.2     1  UNL1        0.0000
     12  C          4.7370    1.3800    1.6130 C.2     1  UNL1        0.0000
@<TRIPOS>BOND
     1     1     6    1
     2     1     2    1
     3     6     7    1
     4     4     2    1
     5     4     5    1
     6     2     3    2
     7     8     7    2
     8     8    10    1
     9     7     9    1
    10    10    12    2
    11     9    11    2
    12    12    11    1
