@<TRIPOS>MOLECULE
/home/cewinharhar/GITHUB/reincatalyze/data/processed/docking_pred/2023-Apr-25-2248_maxeplen10_maxtrainstep1000_exh16_gamma099_lrac3e-4_lrcr1e-3/9282b18981f6708324b0af4486d36de930a99903_ligand_2.pdbqt
 12 12 0 0 0
SMALL
GASTEIGER

@<TRIPOS>ATOM
      1  C          8.0650   -5.5040   11.9260 C.3     1  UNL1        0.1270
      2  C          7.6970   -4.1990   11.3480 C.2     1  UNL1        0.3030
      3  O          7.6390   -4.0790   10.0940 O.2     1  UNL1       -0.2520
      4  O          7.4080   -3.0830   12.1460 O.3     1  UNL1       -0.4810
      5  H          7.5030   -2.1610   11.7410 H       1  UNL1        0.2960
      6  C          8.3400   -6.5470   10.8580 C.3     1  UNL1        0.0470
      7  C          9.7700   -6.9520   10.8640 C.2     1  UNL1       -0.0470
      8  C         10.7600   -6.0460   11.2170 C.2     1  UNL1        0.0040
      9  C         10.1900   -8.2230   10.5170 C.2     1  UNL1        0.0040
     10  C         12.0930   -6.3860   11.2220 C.2     1  UNL1        0.0000
     11  C         11.5250   -8.5620   10.5230 C.2     1  UNL1        0.0000
     12  C         12.5020   -7.6580   10.8730 C.2     1  UNL1        0.0000
@<TRIPOS>BOND
     1     3     2    2
     2     9    11    1
     3     9     7    2
     4    11    12    2
     5     6     7    1
     6     6     1    1
     7     7     8    1
     8    12    10    1
     9     8    10    2
    10     2     1    1
    11     2     4    1
    12     5     4    1
