@<TRIPOS>MOLECULE
/home/cewinharhar/GITHUB/reincatalyze/data/processed/docking_pred/2023-Apr-25-2248_maxeplen10_maxtrainstep1000_exh16_gamma099_lrac3e-4_lrcr1e-3/9282b18981f6708324b0af4486d36de930a99903_ligand_2.pdbqt
 12 12 0 0 0
SMALL
GASTEIGER

@<TRIPOS>ATOM
      1  C         12.2950   -7.8590   10.3860 C.3     1  UNL1        0.1270
      2  C         13.5310   -7.9680    9.5910 C.2     1  UNL1        0.3030
      3  O         14.5570   -8.4750   10.1210 O.2     1  UNL1       -0.2520
      4  O         13.6060   -7.5280    8.2620 O.3     1  UNL1       -0.4810
      5  H         12.7990   -7.0730    7.8570 H       1  UNL1        0.2960
      6  C         12.1540   -6.4980   11.0440 C.3     1  UNL1        0.0470
      7  C         10.7250   -6.1090   11.1630 C.2     1  UNL1       -0.0470
      8  C          9.7730   -6.6420   10.3060 C.2     1  UNL1        0.0040
      9  C         10.2710   -5.2050   12.1060 C.2     1  UNL1        0.0040
     10  C          8.4440   -6.2940   10.3830 C.2     1  UNL1        0.0000
     11  C          8.9390   -4.8580   12.1820 C.2     1  UNL1        0.0000
     12  C          8.0010   -5.3900   11.3270 C.2     1  UNL1        0.0000
@<TRIPOS>BOND
     1     5     4    1
     2     4     2    1
     3     2     3    2
     4     2     1    1
     5     8    10    1
     6     8     7    2
     7    10    12    2
     8     1     6    1
     9     6     7    1
    10     7     9    1
    11    12    11    1
    12     9    11    2
