MODEL 1
REMARK VINA RESULT:      -5.5      0.000      0.000
REMARK SMILES O=C(O)CCc1ccccc1
REMARK SMILES IDX 4 1 2 2 1 3 3 4 5 6 6 7 7 8 11 9 8 10 10 11 9 12
REMARK H PARENT 3 5
REMARK Flexibility Score: inf
ROOT
ATOM      1  C   UNL     1       6.414  -0.577   2.728  1.00  0.00     0.127 C 
ENDROOT
BRANCH   1   2
ATOM      2  C   UNL     1       7.166  -1.534   1.899  1.00  0.00     0.303 C 
ATOM      3  O   UNL     1       8.324  -1.226   1.506  1.00  0.00    -0.252 OA
BRANCH   2   4
ATOM      4  O   UNL     1       6.639  -2.781   1.531  1.00  0.00    -0.481 OA
ATOM      5  H   UNL     1       5.933  -3.200   2.120  1.00  0.00     0.296 HD
ENDBRANCH   2   4
ENDBRANCH   1   2
BRANCH   1   6
ATOM      6  C   UNL     1       5.209  -0.009   1.999  1.00  0.00     0.047 C 
BRANCH   6   7
ATOM      7  C   UNL     1       5.530   1.305   1.383  1.00  0.00    -0.047 A 
ATOM      8  C   UNL     1       4.863   1.735   0.245  1.00  0.00     0.004 A 
ATOM      9  C   UNL     1       6.498   2.153   1.890  1.00  0.00     0.004 A 
ATOM     10  C   UNL     1       5.144   2.941  -0.355  1.00  0.00     0.000 A 
ATOM     11  C   UNL     1       6.779   3.361   1.288  1.00  0.00     0.000 A 
ATOM     12  C   UNL     1       6.113   3.780   0.159  1.00  0.00     0.000 A 
ENDBRANCH   6   7
ENDBRANCH   1   6
TORSDOF 4
ENDMDL
MODEL 2
REMARK VINA RESULT:      -5.5      0.044      1.421
REMARK SMILES O=C(O)CCc1ccccc1
REMARK SMILES IDX 4 1 2 2 1 3 3 4 5 6 6 7 7 8 11 9 8 10 10 11 9 12
REMARK H PARENT 3 5
REMARK Flexibility Score: inf
ROOT
ATOM      1  C   UNL     1       6.484  -0.557   2.715  1.00  0.00     0.127 C 
ENDROOT
BRANCH   1   2
ATOM      2  C   UNL     1       7.212  -1.532   1.884  1.00  0.00     0.303 C 
ATOM      3  O   UNL     1       8.378  -1.253   1.492  1.00  0.00    -0.252 OA
BRANCH   2   4
ATOM      4  O   UNL     1       6.654  -2.764   1.513  1.00  0.00    -0.481 OA
ATOM      5  H   UNL     1       7.235  -3.590   1.554  1.00  0.00     0.296 HD
ENDBRANCH   2   4
ENDBRANCH   1   2
BRANCH   1   6
ATOM      6  C   UNL     1       5.252  -0.013   2.015  1.00  0.00     0.047 C 
BRANCH   6   7
ATOM      7  C   UNL     1       5.539   1.295   1.371  1.00  0.00    -0.047 A 
ATOM      8  C   UNL     1       6.510   2.140   1.888  1.00  0.00     0.004 A 
ATOM      9  C   UNL     1       4.864   1.742   0.250  1.00  0.00     0.004 A 
ATOM     10  C   UNL     1       6.792   3.362   1.321  1.00  0.00     0.000 A 
ATOM     11  C   UNL     1       5.147   2.966  -0.317  1.00  0.00     0.000 A 
ATOM     12  C   UNL     1       6.111   3.799   0.203  1.00  0.00     0.000 A 
ENDBRANCH   6   7
ENDBRANCH   1   6
TORSDOF 4
ENDMDL
MODEL 3
REMARK VINA RESULT:      -3.6      2.971      4.758
REMARK SMILES O=C(O)CCc1ccccc1
REMARK SMILES IDX 4 1 2 2 1 3 3 4 5 6 6 7 7 8 11 9 8 10 10 11 9 12
REMARK H PARENT 3 5
REMARK Flexibility Score: inf
ROOT
ATOM      1  C   UNL     1       5.701   2.885   0.161  1.00  0.00     0.127 C 
ENDROOT
BRANCH   1   2
ATOM      2  C   UNL     1       6.308   4.056   0.817  1.00  0.00     0.303 C 
ATOM      3  O   UNL     1       7.113   4.775   0.165  1.00  0.00    -0.252 OA
BRANCH   2   4
ATOM      4  O   UNL     1       6.020   4.402   2.145  1.00  0.00    -0.481 OA
ATOM      5  H   UNL     1       6.456   5.227   2.536  1.00  0.00     0.296 HD
ENDBRANCH   2   4
ENDBRANCH   1   2
BRANCH   1   6
ATOM      6  C   UNL     1       4.873   2.053   1.123  1.00  0.00     0.047 C 
BRANCH   6   7
ATOM      7  C   UNL     1       5.585   0.801   1.493  1.00  0.00    -0.047 A 
ATOM      8  C   UNL     1       6.890   0.842   1.963  1.00  0.00     0.004 A 
ATOM      9  C   UNL     1       5.006  -0.450   1.384  1.00  0.00     0.004 A 
ATOM     10  C   UNL     1       7.579  -0.299   2.304  1.00  0.00     0.000 A 
ATOM     11  C   UNL     1       5.698  -1.592   1.725  1.00  0.00     0.000 A 
ATOM     12  C   UNL     1       6.992  -1.543   2.190  1.00  0.00     0.000 A 
ENDBRANCH   6   7
ENDBRANCH   1   6
TORSDOF 4
ENDMDL
MODEL 4
REMARK VINA RESULT:      -3.6     12.127     13.150
REMARK SMILES O=C(O)CCc1ccccc1
REMARK SMILES IDX 4 1 2 2 1 3 3 4 5 6 6 7 7 8 11 9 8 10 10 11 9 12
REMARK H PARENT 3 5
REMARK Flexibility Score: inf
ROOT
ATOM      1  C   UNL     1      12.295  -7.859  10.386  1.00  0.00     0.127 C 
ENDROOT
BRANCH   1   2
ATOM      2  C   UNL     1      13.531  -7.968   9.591  1.00  0.00     0.303 C 
ATOM      3  O   UNL     1      14.557  -8.475  10.121  1.00  0.00    -0.252 OA
BRANCH   2   4
ATOM      4  O   UNL     1      13.606  -7.528   8.262  1.00  0.00    -0.481 OA
ATOM      5  H   UNL     1      12.799  -7.073   7.857  1.00  0.00     0.296 HD
ENDBRANCH   2   4
ENDBRANCH   1   2
BRANCH   1   6
ATOM      6  C   UNL     1      12.154  -6.498  11.044  1.00  0.00     0.047 C 
BRANCH   6   7
ATOM      7  C   UNL     1      10.725  -6.109  11.163  1.00  0.00    -0.047 A 
ATOM      8  C   UNL     1       9.773  -6.642  10.306  1.00  0.00     0.004 A 
ATOM      9  C   UNL     1      10.271  -5.205  12.106  1.00  0.00     0.004 A 
ATOM     10  C   UNL     1       8.444  -6.294  10.383  1.00  0.00     0.000 A 
ATOM     11  C   UNL     1       8.939  -4.858  12.182  1.00  0.00     0.000 A 
ATOM     12  C   UNL     1       8.001  -5.390  11.327  1.00  0.00     0.000 A 
ENDBRANCH   6   7
ENDBRANCH   1   6
TORSDOF 4
ENDMDL
MODEL 5
REMARK VINA RESULT:      -3.6     11.411     13.240
REMARK SMILES O=C(O)CCc1ccccc1
REMARK SMILES IDX 4 1 2 2 1 3 3 4 5 6 6 7 7 8 11 9 8 10 10 11 9 12
REMARK H PARENT 3 5
REMARK Flexibility Score: inf
ROOT
ATOM      1  C   UNL     1       8.065  -5.504  11.926  1.00  0.00     0.127 C 
ENDROOT
BRANCH   1   2
ATOM      2  C   UNL     1       7.697  -4.199  11.348  1.00  0.00     0.303 C 
ATOM      3  O   UNL     1       7.639  -4.079  10.094  1.00  0.00    -0.252 OA
BRANCH   2   4
ATOM      4  O   UNL     1       7.408  -3.083  12.146  1.00  0.00    -0.481 OA
ATOM      5  H   UNL     1       7.503  -2.161  11.741  1.00  0.00     0.296 HD
ENDBRANCH   2   4
ENDBRANCH   1   2
BRANCH   1   6
ATOM      6  C   UNL     1       8.340  -6.547  10.858  1.00  0.00     0.047 C 
BRANCH   6   7
ATOM      7  C   UNL     1       9.770  -6.952  10.864  1.00  0.00    -0.047 A 
ATOM      8  C   UNL     1      10.760  -6.046  11.217  1.00  0.00     0.004 A 
ATOM      9  C   UNL     1      10.190  -8.223  10.517  1.00  0.00     0.004 A 
ATOM     10  C   UNL     1      12.093  -6.386  11.222  1.00  0.00     0.000 A 
ATOM     11  C   UNL     1      11.525  -8.562  10.523  1.00  0.00     0.000 A 
ATOM     12  C   UNL     1      12.502  -7.658  10.873  1.00  0.00     0.000 A 
ENDBRANCH   6   7
ENDBRANCH   1   6
TORSDOF 4
ENDMDL
