@<TRIPOS>MOLECULE
/home/cewinharhar/GITHUB/reincatalyze/data/processed/docking_pred/2023-Apr-25-2248_maxeplen10_maxtrainstep1000_exh16_gamma099_lrac3e-4_lrcr1e-3/9282b18981f6708324b0af4486d36de930a99903_ligand_2.pdbqt
 12 12 0 0 0
SMALL
GASTEIGER

@<TRIPOS>ATOM
      1  C          6.4840   -0.5570    2.7150 C.3     1  UNL1        0.1270
      2  C          7.2120   -1.5320    1.8840 C.2     1  UNL1        0.3030
      3  O          8.3780   -1.2530    1.4920 O.2     1  UNL1       -0.2520
      4  O          6.6540   -2.7640    1.5130 O.3     1  UNL1       -0.4810
      5  H          7.2350   -3.5900    1.5540 H       1  UNL1        0.2960
      6  C          5.2520   -0.0130    2.0150 C.3     1  UNL1        0.0470
      7  C          5.5390    1.2950    1.3710 C.2     1  UNL1       -0.0470
      8  C          6.5100    2.1400    1.8880 C.2     1  UNL1        0.0040
      9  C          4.8640    1.7420    0.2500 C.2     1  UNL1        0.0040
     10  C          6.7920    3.3620    1.3210 C.2     1  UNL1        0.0000
     11  C          5.1470    2.9660   -0.3170 C.2     1  UNL1        0.0000
     12  C          6.1110    3.7990    0.2030 C.2     1  UNL1        0.0000
@<TRIPOS>BOND
     1    11    12    2
     2    11     9    1
     3    12    10    1
     4     9     7    2
     5    10     8    2
     6     7     8    1
     7     7     6    1
     8     3     2    2
     9     4     5    1
    10     4     2    1
    11     2     1    1
    12     6     1    1
