@<TRIPOS>MOLECULE
/home/cewinharhar/GITHUB/reincatalyze/data/processed/docking_pred/2023-Apr-25-2248_maxeplen10_maxtrainstep1000_exh16_gamma099_lrac3e-4_lrcr1e-3/9282b18981f6708324b0af4486d36de930a99903_ligand_2.pdbqt
 12 12 0 0 0
SMALL
GASTEIGER

@<TRIPOS>ATOM
      1  C          6.4140   -0.5770    2.7280 C.3     1  UNL1        0.1270
      2  C          7.1660   -1.5340    1.8990 C.2     1  UNL1        0.3030
      3  O          8.3240   -1.2260    1.5060 O.2     1  UNL1       -0.2520
      4  O          6.6390   -2.7810    1.5310 O.3     1  UNL1       -0.4810
      5  H          5.9330   -3.2000    2.1200 H       1  UNL1        0.2960
      6  C          5.2090   -0.0090    1.9990 C.3     1  UNL1        0.0470
      7  C          5.5300    1.3050    1.3830 C.2     1  UNL1       -0.0470
      8  C          4.8630    1.7350    0.2450 C.2     1  UNL1        0.0040
      9  C          6.4980    2.1530    1.8900 C.2     1  UNL1        0.0040
     10  C          5.1440    2.9410   -0.3550 C.2     1  UNL1        0.0000
     11  C          6.7790    3.3610    1.2880 C.2     1  UNL1        0.0000
     12  C          6.1130    3.7800    0.1590 C.2     1  UNL1        0.0000
@<TRIPOS>BOND
     1    10    12    2
     2    10     8    1
     3    12    11    1
     4     8     7    2
     5    11     9    2
     6     7     9    1
     7     7     6    1
     8     3     2    2
     9     4     2    1
    10     4     5    1
    11     2     1    1
    12     6     1    1
