@<TRIPOS>MOLECULE
/home/cewinharhar/GITHUB/reincatalyze/data/processed/docking_pred/2023-Apr-25-2248_maxeplen10_maxtrainstep1000_exh16_gamma099_lrac3e-4_lrcr1e-3/9282b18981f6708324b0af4486d36de930a99903_ligand_2.pdbqt
 12 12 0 0 0
SMALL
GASTEIGER

@<TRIPOS>ATOM
      1  C          5.7010    2.8850    0.1610 C.3     1  UNL1        0.1270
      2  C          6.3080    4.0560    0.8170 C.2     1  UNL1        0.3030
      3  O          7.1130    4.7750    0.1650 O.2     1  UNL1       -0.2520
      4  O          6.0200    4.4020    2.1450 O.3     1  UNL1       -0.4810
      5  H          6.4560    5.2270    2.5360 H       1  UNL1        0.2960
      6  C          4.8730    2.0530    1.1230 C.3     1  UNL1        0.0470
      7  C          5.5850    0.8010    1.4930 C.2     1  UNL1       -0.0470
      8  C          6.8900    0.8420    1.9630 C.2     1  UNL1        0.0040
      9  C          5.0060   -0.4500    1.3840 C.2     1  UNL1        0.0040
     10  C          7.5790   -0.2990    2.3040 C.2     1  UNL1        0.0000
     11  C          5.6980   -1.5920    1.7250 C.2     1  UNL1        0.0000
     12  C          6.9920   -1.5430    2.1900 C.2     1  UNL1        0.0000
@<TRIPOS>BOND
     1     1     2    1
     2     1     6    1
     3     3     2    2
     4     2     4    1
     5     6     7    1
     6     9     7    2
     7     9    11    1
     8     7     8    1
     9    11    12    2
    10     8    10    2
    11     4     5    1
    12    12    10    1
