MODEL 1
REMARK VINA RESULT:      -7.3      0.000      0.000
REMARK SMILES O=C(O)CCc1ccccc1
REMARK SMILES IDX 4 1 2 2 1 3 3 4 5 6 6 7 7 8 11 9 8 10 10 11 9 12
REMARK H PARENT 3 5
REMARK Flexibility Score: inf
ROOT
ATOM      1  C   UNL     1       8.404  -0.627  -2.139  1.00  0.00     0.127 C 
ENDROOT
BRANCH   1   2
ATOM      2  C   UNL     1       8.436  -1.889  -2.900  1.00  0.00     0.303 C 
ATOM      3  O   UNL     1       9.543  -2.465  -3.083  1.00  0.00    -0.252 OA
BRANCH   2   4
ATOM      4  O   UNL     1       7.276  -2.473  -3.427  1.00  0.00    -0.481 OA
ATOM      5  H   UNL     1       6.862  -2.065  -4.254  1.00  0.00     0.296 HD
ENDBRANCH   2   4
ENDBRANCH   1   2
BRANCH   1   6
ATOM      6  C   UNL     1       7.021  -0.000  -2.125  1.00  0.00     0.047 C 
BRANCH   6   7
ATOM      7  C   UNL     1       6.491   0.089  -0.739  1.00  0.00    -0.047 A 
ATOM      8  C   UNL     1       6.613  -0.982   0.136  1.00  0.00     0.004 A 
ATOM      9  C   UNL     1       5.851   1.214  -0.254  1.00  0.00     0.004 A 
ATOM     10  C   UNL     1       6.123  -0.934   1.421  1.00  0.00     0.000 A 
ATOM     11  C   UNL     1       5.361   1.260   1.034  1.00  0.00     0.000 A 
ATOM     12  C   UNL     1       5.484   0.193   1.895  1.00  0.00     0.000 A 
ENDBRANCH   6   7
ENDBRANCH   1   6
TORSDOF 4
ENDMDL
MODEL 2
REMARK VINA RESULT:      -7.3      0.042      1.421
REMARK SMILES O=C(O)CCc1ccccc1
REMARK SMILES IDX 4 1 2 2 1 3 3 4 5 6 6 7 7 8 11 9 8 10 10 11 9 12
REMARK H PARENT 3 5
REMARK Flexibility Score: inf
ROOT
ATOM      1  C   UNL     1       8.418  -0.610  -2.189  1.00  0.00     0.127 C 
ENDROOT
BRANCH   1   2
ATOM      2  C   UNL     1       8.448  -1.893  -2.915  1.00  0.00     0.303 C 
ATOM      3  O   UNL     1       9.554  -2.474  -3.086  1.00  0.00    -0.252 OA
BRANCH   2   4
ATOM      4  O   UNL     1       7.286  -2.492  -3.423  1.00  0.00    -0.481 OA
ATOM      5  H   UNL     1       6.880  -2.117  -4.270  1.00  0.00     0.296 HD
ENDBRANCH   2   4
ENDBRANCH   1   2
BRANCH   1   6
ATOM      6  C   UNL     1       7.028   0.001  -2.161  1.00  0.00     0.047 C 
BRANCH   6   7
ATOM      7  C   UNL     1       6.499   0.057  -0.774  1.00  0.00    -0.047 A 
ATOM      8  C   UNL     1       5.861   1.196  -0.305  1.00  0.00     0.004 A 
ATOM      9  C   UNL     1       6.618  -0.995   0.116  1.00  0.00     0.004 A 
ATOM     10  C   UNL     1       5.369   1.283   0.977  1.00  0.00     0.000 A 
ATOM     11  C   UNL     1       6.126  -0.906   1.400  1.00  0.00     0.000 A 
ATOM     12  C   UNL     1       5.494   0.228   1.858  1.00  0.00     0.000 A 
ENDBRANCH   6   7
ENDBRANCH   1   6
TORSDOF 4
ENDMDL
MODEL 3
REMARK VINA RESULT:      -6.8      3.389      5.088
REMARK SMILES O=C(O)CCc1ccccc1
REMARK SMILES IDX 4 1 2 2 1 3 3 4 5 6 6 7 7 8 11 9 8 10 10 11 9 12
REMARK H PARENT 3 5
REMARK Flexibility Score: inf
ROOT
ATOM      1  C   UNL     1       4.977   1.803   0.715  1.00  0.00     0.127 C 
ENDROOT
BRANCH   1   2
ATOM      2  C   UNL     1       4.463   1.121   1.916  1.00  0.00     0.303 C 
ATOM      3  O   UNL     1       5.157   0.212   2.448  1.00  0.00    -0.252 OA
BRANCH   2   4
ATOM      4  O   UNL     1       3.227   1.448   2.491  1.00  0.00    -0.481 OA
ATOM      5  H   UNL     1       2.418   1.520   1.889  1.00  0.00     0.296 HD
ENDBRANCH   2   4
ENDBRANCH   1   2
BRANCH   1   6
ATOM      6  C   UNL     1       6.489   1.940   0.735  1.00  0.00     0.047 C 
BRANCH   6   7
ATOM      7  C   UNL     1       7.113   1.121  -0.336  1.00  0.00    -0.047 A 
ATOM      8  C   UNL     1       8.467   1.238  -0.619  1.00  0.00     0.004 A 
ATOM      9  C   UNL     1       6.397   0.220  -1.103  1.00  0.00     0.004 A 
ATOM     10  C   UNL     1       9.072   0.501  -1.611  1.00  0.00     0.000 A 
ATOM     11  C   UNL     1       7.005  -0.517  -2.096  1.00  0.00     0.000 A 
ATOM     12  C   UNL     1       8.348  -0.394  -2.372  1.00  0.00     0.000 A 
ENDBRANCH   6   7
ENDBRANCH   1   6
TORSDOF 4
ENDMDL
MODEL 4
REMARK VINA RESULT:      -6.6      1.947      2.350
REMARK SMILES O=C(O)CCc1ccccc1
REMARK SMILES IDX 4 1 2 2 1 3 3 4 5 6 6 7 7 8 11 9 8 10 10 11 9 12
REMARK H PARENT 3 5
REMARK Flexibility Score: inf
ROOT
ATOM      1  C   UNL     1       8.295   0.124  -2.196  1.00  0.00     0.127 C 
ENDROOT
BRANCH   1   2
ATOM      2  C   UNL     1       9.402   0.348  -1.250  1.00  0.00     0.303 C 
ATOM      3  O   UNL     1       9.480  -0.373  -0.218  1.00  0.00    -0.252 OA
BRANCH   2   4
ATOM      4  O   UNL     1      10.376   1.335  -1.458  1.00  0.00    -0.481 OA
ATOM      5  H   UNL     1      11.300   1.048  -1.750  1.00  0.00     0.296 HD
ENDBRANCH   2   4
ENDBRANCH   1   2
BRANCH   1   6
ATOM      6  C   UNL     1       7.151  -0.652  -1.568  1.00  0.00     0.047 C 
BRANCH   6   7
ATOM      7  C   UNL     1       6.375   0.206  -0.635  1.00  0.00    -0.047 A 
ATOM      8  C   UNL     1       6.143  -0.200   0.672  1.00  0.00     0.004 A 
ATOM      9  C   UNL     1       5.841   1.426  -1.007  1.00  0.00     0.004 A 
ATOM     10  C   UNL     1       5.420   0.566   1.557  1.00  0.00     0.000 A 
ATOM     11  C   UNL     1       5.117   2.192  -0.119  1.00  0.00     0.000 A 
ATOM     12  C   UNL     1       4.891   1.782   1.175  1.00  0.00     0.000 A 
ENDBRANCH   6   7
ENDBRANCH   1   6
TORSDOF 4
ENDMDL
MODEL 5
REMARK VINA RESULT:      -6.6      2.058      2.775
REMARK SMILES O=C(O)CCc1ccccc1
REMARK SMILES IDX 4 1 2 2 1 3 3 4 5 6 6 7 7 8 11 9 8 10 10 11 9 12
REMARK H PARENT 3 5
REMARK Flexibility Score: inf
ROOT
ATOM      1  C   UNL     1       7.973  -2.325   0.745  1.00  0.00     0.127 C 
ENDROOT
BRANCH   1   2
ATOM      2  C   UNL     1       8.786  -3.477   0.316  1.00  0.00     0.303 C 
ATOM      3  O   UNL     1       9.680  -3.917   1.090  1.00  0.00    -0.252 OA
BRANCH   2   4
ATOM      4  O   UNL     1       8.599  -4.104  -0.924  1.00  0.00    -0.481 OA
ATOM      5  H   UNL     1       9.368  -4.117  -1.580  1.00  0.00     0.296 HD
ENDBRANCH   2   4
ENDBRANCH   1   2
BRANCH   1   6
ATOM      6  C   UNL     1       7.541  -1.460  -0.426  1.00  0.00     0.047 C 
BRANCH   6   7
ATOM      7  C   UNL     1       6.641  -0.366   0.023  1.00  0.00    -0.047 A 
ATOM      8  C   UNL     1       6.323   0.683  -0.828  1.00  0.00     0.004 A 
ATOM      9  C   UNL     1       6.090  -0.323   1.291  1.00  0.00     0.004 A 
ATOM     10  C   UNL     1       5.502   1.716  -0.438  1.00  0.00     0.000 A 
ATOM     11  C   UNL     1       5.267   0.712   1.679  1.00  0.00     0.000 A 
ATOM     12  C   UNL     1       4.957   1.750   0.830  1.00  0.00     0.000 A 
ENDBRANCH   6   7
ENDBRANCH   1   6
TORSDOF 4
ENDMDL
