@<TRIPOS>MOLECULE
/home/cewinharhar/GITHUB/reincatalyze/data/processed/docking_pred/2023-Apr-25-2248_maxeplen10_maxtrainstep1000_exh16_gamma099_lrac3e-4_lrcr1e-3/939bd1e5684a89eea32cbd4f4170b12915347732_ligand_2.pdbqt
 12 12 0 0 0
SMALL
GASTEIGER

@<TRIPOS>ATOM
      1  C          7.9730   -2.3250    0.7450 C.3     1  UNL1        0.1270
      2  C          8.7860   -3.4770    0.3160 C.2     1  UNL1        0.3030
      3  O          9.6800   -3.9170    1.0900 O.2     1  UNL1       -0.2520
      4  O          8.5990   -4.1040   -0.9240 O.3     1  UNL1       -0.4810
      5  H          9.3680   -4.1170   -1.5800 H       1  UNL1        0.2960
      6  C          7.5410   -1.4600   -0.4260 C.3     1  UNL1        0.0470
      7  C          6.6410   -0.3660    0.0230 C.2     1  UNL1       -0.0470
      8  C          6.3230    0.6830   -0.8280 C.2     1  UNL1        0.0040
      9  C          6.0900   -0.3230    1.2910 C.2     1  UNL1        0.0040
     10  C          5.5020    1.7160   -0.4380 C.2     1  UNL1        0.0000
     11  C          5.2670    0.7120    1.6790 C.2     1  UNL1        0.0000
     12  C          4.9570    1.7500    0.8300 C.2     1  UNL1        0.0000
@<TRIPOS>BOND
     1     5     4    1
     2     4     2    1
     3     8    10    1
     4     8     7    2
     5    10    12    2
     6     6     7    1
     7     6     1    1
     8     7     9    1
     9     2     1    1
    10     2     3    2
    11    12    11    1
    12     9    11    2
