@<TRIPOS>MOLECULE
/home/cewinharhar/GITHUB/reincatalyze/data/processed/docking_pred/2023-Apr-25-2248_maxeplen10_maxtrainstep1000_exh16_gamma099_lrac3e-4_lrcr1e-3/939bd1e5684a89eea32cbd4f4170b12915347732_ligand_2.pdbqt
 12 12 0 0 0
SMALL
GASTEIGER

@<TRIPOS>ATOM
      1  C          8.4180   -0.6100   -2.1890 C.3     1  UNL1        0.1270
      2  C          8.4480   -1.8930   -2.9150 C.2     1  UNL1        0.3030
      3  O          9.5540   -2.4740   -3.0860 O.2     1  UNL1       -0.2520
      4  O          7.2860   -2.4920   -3.4230 O.3     1  UNL1       -0.4810
      5  H          6.8800   -2.1170   -4.2700 H       1  UNL1        0.2960
      6  C          7.0280    0.0010   -2.1610 C.3     1  UNL1        0.0470
      7  C          6.4990    0.0570   -0.7740 C.2     1  UNL1       -0.0470
      8  C          5.8610    1.1960   -0.3050 C.2     1  UNL1        0.0040
      9  C          6.6180   -0.9950    0.1160 C.2     1  UNL1        0.0040
     10  C          5.3690    1.2830    0.9770 C.2     1  UNL1        0.0000
     11  C          6.1260   -0.9060    1.4000 C.2     1  UNL1        0.0000
     12  C          5.4940    0.2280    1.8580 C.2     1  UNL1        0.0000
@<TRIPOS>BOND
     1     5     4    1
     2     4     2    1
     3     3     2    2
     4     2     1    1
     5     1     6    1
     6     6     7    1
     7     7     8    2
     8     7     9    1
     9     8    10    1
    10     9    11    2
    11    10    12    2
    12    11    12    1
