@<TRIPOS>MOLECULE
/home/cewinharhar/GITHUB/reincatalyze/data/processed/docking_pred/2023-Apr-25-2248_maxeplen10_maxtrainstep1000_exh16_gamma099_lrac3e-4_lrcr1e-3/939bd1e5684a89eea32cbd4f4170b12915347732_ligand_2.pdbqt
 12 12 0 0 0
SMALL
GASTEIGER

@<TRIPOS>ATOM
      1  C          4.9770    1.8030    0.7150 C.3     1  UNL1        0.1270
      2  C          4.4630    1.1210    1.9160 C.2     1  UNL1        0.3030
      3  O          5.1570    0.2120    2.4480 O.2     1  UNL1       -0.2520
      4  O          3.2270    1.4480    2.4910 O.3     1  UNL1       -0.4810
      5  H          2.4180    1.5200    1.8890 H       1  UNL1        0.2960
      6  C          6.4890    1.9400    0.7350 C.3     1  UNL1        0.0470
      7  C          7.1130    1.1210   -0.3360 C.2     1  UNL1       -0.0470
      8  C          8.4670    1.2380   -0.6190 C.2     1  UNL1        0.0040
      9  C          6.3970    0.2200   -1.1030 C.2     1  UNL1        0.0040
     10  C          9.0720    0.5010   -1.6110 C.2     1  UNL1        0.0000
     11  C          7.0050   -0.5170   -2.0960 C.2     1  UNL1        0.0000
     12  C          8.3480   -0.3940   -2.3720 C.2     1  UNL1        0.0000
@<TRIPOS>BOND
     1    12    11    2
     2    12    10    1
     3    11     9    1
     4    10     8    2
     5     9     7    2
     6     8     7    1
     7     7     6    1
     8     1     6    1
     9     1     2    1
    10     5     4    1
    11     2     3    2
    12     2     4    1
