@<TRIPOS>MOLECULE
/home/cewinharhar/GITHUB/reincatalyze/data/processed/docking_pred/2023-Apr-25-2248_maxeplen10_maxtrainstep1000_exh16_gamma099_lrac3e-4_lrcr1e-3/939bd1e5684a89eea32cbd4f4170b12915347732_ligand_2.pdbqt
 12 12 0 0 0
SMALL
GASTEIGER

@<TRIPOS>ATOM
      1  C          8.4040   -0.6270   -2.1390 C.3     1  UNL1        0.1270
      2  C          8.4360   -1.8890   -2.9000 C.2     1  UNL1        0.3030
      3  O          9.5430   -2.4650   -3.0830 O.2     1  UNL1       -0.2520
      4  O          7.2760   -2.4730   -3.4270 O.3     1  UNL1       -0.4810
      5  H          6.8620   -2.0650   -4.2540 H       1  UNL1        0.2960
      6  C          7.0210   -0.0000   -2.1250 C.3     1  UNL1        0.0470
      7  C          6.4910    0.0890   -0.7390 C.2     1  UNL1       -0.0470
      8  C          6.6130   -0.9820    0.1360 C.2     1  UNL1        0.0040
      9  C          5.8510    1.2140   -0.2540 C.2     1  UNL1        0.0040
     10  C          6.1230   -0.9340    1.4210 C.2     1  UNL1        0.0000
     11  C          5.3610    1.2600    1.0340 C.2     1  UNL1        0.0000
     12  C          5.4840    0.1930    1.8950 C.2     1  UNL1        0.0000
@<TRIPOS>BOND
     1     5     4    1
     2     4     2    1
     3     3     2    2
     4     2     1    1
     5     1     6    1
     6     6     7    1
     7     7     9    2
     8     7     8    1
     9     9    11    1
    10     8    10    2
    11    11    12    2
    12    10    12    1
