@<TRIPOS>MOLECULE
/home/cewinharhar/GITHUB/reincatalyze/data/processed/docking_pred/2023-Apr-25-2248_maxeplen10_maxtrainstep1000_exh16_gamma099_lrac3e-4_lrcr1e-3/93b19c8378935853b44d27bbf459025f9fc44a5e_ligand_2.pdbqt
 12 12 0 0 0
SMALL
GASTEIGER

@<TRIPOS>ATOM
      1  C          8.2310   -0.8980   -1.8940 C.3     1  UNL1        0.1270
      2  C          8.3720   -1.9980   -2.8630 C.2     1  UNL1        0.3030
      3  O          9.5200   -2.4640   -3.0990 O.2     1  UNL1       -0.2520
      4  O          7.2710   -2.5490   -3.5340 O.3     1  UNL1       -0.4810
      5  H          7.1210   -3.5480   -3.4780 H       1  UNL1        0.2960
      6  C          7.5090   -1.3330   -0.6310 C.3     1  UNL1        0.0470
      7  C          6.6280   -0.2510   -0.1210 C.2     1  UNL1       -0.0470
      8  C          6.1550   -0.2790    1.1830 C.2     1  UNL1        0.0040
      9  C          6.2270    0.8180   -0.9010 C.2     1  UNL1        0.0040
     10  C          5.3300    0.7030    1.6820 C.2     1  UNL1        0.0000
     11  C          5.4000    1.8000   -0.4000 C.2     1  UNL1        0.0000
     12  C          4.9340    1.7650    0.8950 C.2     1  UNL1        0.0000
@<TRIPOS>BOND
     1     4     5    1
     2     4     2    1
     3     3     2    2
     4     2     1    1
     5     1     6    1
     6     9    11    1
     7     9     7    2
     8     6     7    1
     9    11    12    2
    10     7     8    1
    11    12    10    1
    12     8    10    2
