@<TRIPOS>MOLECULE
/home/cewinharhar/GITHUB/reincatalyze/data/processed/docking_pred/2023-Apr-25-2248_maxeplen10_maxtrainstep1000_exh16_gamma099_lrac3e-4_lrcr1e-3/93b19c8378935853b44d27bbf459025f9fc44a5e_ligand_2.pdbqt
 12 12 0 0 0
SMALL
GASTEIGER

@<TRIPOS>ATOM
      1  C          8.2720   -0.9220   -1.8930 C.3     1  UNL1        0.1270
      2  C          8.3830   -2.0190   -2.8700 C.2     1  UNL1        0.3030
      3  O          9.5190   -2.5070   -3.1160 O.2     1  UNL1       -0.2520
      4  O          7.2660   -2.5430   -3.5370 O.3     1  UNL1       -0.4810
      5  H          7.4170   -3.1850   -4.3030 H       1  UNL1        0.2960
      6  C          7.6690   -1.3830   -0.5780 C.3     1  UNL1        0.0470
      7  C          6.7360   -0.3630   -0.0340 C.2     1  UNL1       -0.0470
      8  C          6.3850    0.7490   -0.7860 C.2     1  UNL1        0.0040
      9  C          6.1820   -0.4540    1.2300 C.2     1  UNL1        0.0040
     10  C          5.5320    1.7160   -0.3070 C.2     1  UNL1        0.0000
     11  C          5.3270    0.5160    1.7090 C.2     1  UNL1        0.0000
     12  C          4.9850    1.6170    0.9570 C.2     1  UNL1        0.0000
@<TRIPOS>BOND
     1     5     4    1
     2     4     2    1
     3     3     2    2
     4     2     1    1
     5     1     6    1
     6     8    10    1
     7     8     7    2
     8     6     7    1
     9    10    12    2
    10     7     9    1
    11    12    11    1
    12     9    11    2
