@<TRIPOS>MOLECULE
/home/cewinharhar/GITHUB/reincatalyze/data/processed/docking_pred/2023-Apr-25-2248_maxeplen10_maxtrainstep1000_exh16_gamma099_lrac3e-4_lrcr1e-3/93b19c8378935853b44d27bbf459025f9fc44a5e_ligand_2.pdbqt
 12 12 0 0 0
SMALL
GASTEIGER

@<TRIPOS>ATOM
      1  C          8.4200   -0.6010   -2.1900 C.3     1  UNL1        0.1270
      2  C          8.4590   -1.8810   -2.9200 C.2     1  UNL1        0.3030
      3  O          9.5660   -2.4650   -3.0710 O.2     1  UNL1       -0.2520
      4  O          7.3050   -2.4740   -3.4530 O.3     1  UNL1       -0.4810
      5  H          6.4230   -1.9900   -3.3530 H       1  UNL1        0.2960
      6  C          7.0300    0.0110   -2.1790 C.3     1  UNL1        0.0470
      7  C          6.4920    0.0840   -0.7960 C.2     1  UNL1       -0.0470
      8  C          5.8380    1.2240   -0.3510 C.2     1  UNL1        0.0040
      9  C          6.6170   -0.9510    0.1120 C.2     1  UNL1        0.0040
     10  C          5.3380    1.3280    0.9270 C.2     1  UNL1        0.0000
     11  C          6.1160   -0.8460    1.3920 C.2     1  UNL1        0.0000
     12  C          5.4690    0.2890    1.8270 C.2     1  UNL1        0.0000
@<TRIPOS>BOND
     1     4     5    1
     2     4     2    1
     3     3     2    2
     4     2     1    1
     5     1     6    1
     6     6     7    1
     7     7     8    2
     8     7     9    1
     9     8    10    1
    10     9    11    2
    11    10    12    2
    12    11    12    1
