MODEL 1
REMARK VINA RESULT:      -7.3      0.000      0.000
REMARK SMILES O=C(O)CCc1ccccc1
REMARK SMILES IDX 4 1 2 2 1 3 3 4 5 6 6 7 7 8 11 9 8 10 10 11 9 12
REMARK H PARENT 3 5
REMARK Flexibility Score: inf
ROOT
ATOM      1  C   UNL     1       8.420  -0.601  -2.190  1.00  0.00     0.127 C 
ENDROOT
BRANCH   1   2
ATOM      2  C   UNL     1       8.459  -1.881  -2.920  1.00  0.00     0.303 C 
ATOM      3  O   UNL     1       9.566  -2.465  -3.071  1.00  0.00    -0.252 OA
BRANCH   2   4
ATOM      4  O   UNL     1       7.305  -2.474  -3.453  1.00  0.00    -0.481 OA
ATOM      5  H   UNL     1       6.423  -1.990  -3.353  1.00  0.00     0.296 HD
ENDBRANCH   2   4
ENDBRANCH   1   2
BRANCH   1   6
ATOM      6  C   UNL     1       7.030   0.011  -2.179  1.00  0.00     0.047 C 
BRANCH   6   7
ATOM      7  C   UNL     1       6.492   0.084  -0.796  1.00  0.00    -0.047 A 
ATOM      8  C   UNL     1       5.838   1.224  -0.351  1.00  0.00     0.004 A 
ATOM      9  C   UNL     1       6.617  -0.951   0.112  1.00  0.00     0.004 A 
ATOM     10  C   UNL     1       5.338   1.328   0.927  1.00  0.00     0.000 A 
ATOM     11  C   UNL     1       6.116  -0.846   1.392  1.00  0.00     0.000 A 
ATOM     12  C   UNL     1       5.469   0.289   1.827  1.00  0.00     0.000 A 
ENDBRANCH   6   7
ENDBRANCH   1   6
TORSDOF 4
ENDMDL
MODEL 2
REMARK VINA RESULT:      -7.3      0.109      1.723
REMARK SMILES O=C(O)CCc1ccccc1
REMARK SMILES IDX 4 1 2 2 1 3 3 4 5 6 6 7 7 8 11 9 8 10 10 11 9 12
REMARK H PARENT 3 5
REMARK Flexibility Score: inf
ROOT
ATOM      1  C   UNL     1       8.391  -0.654  -2.127  1.00  0.00     0.127 C 
ENDROOT
BRANCH   1   2
ATOM      2  C   UNL     1       8.398  -1.912  -2.894  1.00  0.00     0.303 C 
ATOM      3  O   UNL     1       7.298  -2.422  -3.242  1.00  0.00    -0.252 OA
BRANCH   2   4
ATOM      4  O   UNL     1       9.587  -2.563  -3.252  1.00  0.00    -0.481 OA
ATOM      5  H   UNL     1       9.891  -2.517  -4.215  1.00  0.00     0.296 HD
ENDBRANCH   2   4
ENDBRANCH   1   2
BRANCH   1   6
ATOM      6  C   UNL     1       7.027   0.013  -2.129  1.00  0.00     0.047 C 
BRANCH   6   7
ATOM      7  C   UNL     1       6.479   0.108  -0.751  1.00  0.00    -0.047 A 
ATOM      8  C   UNL     1       6.611  -0.949   0.138  1.00  0.00     0.004 A 
ATOM      9  C   UNL     1       5.811   1.227  -0.287  1.00  0.00     0.004 A 
ATOM     10  C   UNL     1       6.105  -0.895   1.417  1.00  0.00     0.000 A 
ATOM     11  C   UNL     1       5.305   1.279   0.994  1.00  0.00     0.000 A 
ATOM     12  C   UNL     1       5.439   0.225   1.870  1.00  0.00     0.000 A 
ENDBRANCH   6   7
ENDBRANCH   1   6
TORSDOF 4
ENDMDL
MODEL 3
REMARK VINA RESULT:      -7.2      0.687      1.632
REMARK SMILES O=C(O)CCc1ccccc1
REMARK SMILES IDX 4 1 2 2 1 3 3 4 5 6 6 7 7 8 11 9 8 10 10 11 9 12
REMARK H PARENT 3 5
REMARK Flexibility Score: inf
ROOT
ATOM      1  C   UNL     1       8.231  -0.898  -1.894  1.00  0.00     0.127 C 
ENDROOT
BRANCH   1   2
ATOM      2  C   UNL     1       8.372  -1.998  -2.863  1.00  0.00     0.303 C 
ATOM      3  O   UNL     1       9.520  -2.464  -3.099  1.00  0.00    -0.252 OA
BRANCH   2   4
ATOM      4  O   UNL     1       7.271  -2.549  -3.534  1.00  0.00    -0.481 OA
ATOM      5  H   UNL     1       7.121  -3.548  -3.478  1.00  0.00     0.296 HD
ENDBRANCH   2   4
ENDBRANCH   1   2
BRANCH   1   6
ATOM      6  C   UNL     1       7.509  -1.333  -0.631  1.00  0.00     0.047 C 
BRANCH   6   7
ATOM      7  C   UNL     1       6.628  -0.251  -0.121  1.00  0.00    -0.047 A 
ATOM      8  C   UNL     1       6.155  -0.279   1.183  1.00  0.00     0.004 A 
ATOM      9  C   UNL     1       6.227   0.818  -0.901  1.00  0.00     0.004 A 
ATOM     10  C   UNL     1       5.330   0.703   1.682  1.00  0.00     0.000 A 
ATOM     11  C   UNL     1       5.400   1.800  -0.400  1.00  0.00     0.000 A 
ATOM     12  C   UNL     1       4.934   1.765   0.895  1.00  0.00     0.000 A 
ENDBRANCH   6   7
ENDBRANCH   1   6
TORSDOF 4
ENDMDL
MODEL 4
REMARK VINA RESULT:      -7.1      0.633      1.185
REMARK SMILES O=C(O)CCc1ccccc1
REMARK SMILES IDX 4 1 2 2 1 3 3 4 5 6 6 7 7 8 11 9 8 10 10 11 9 12
REMARK H PARENT 3 5
REMARK Flexibility Score: inf
ROOT
ATOM      1  C   UNL     1       8.272  -0.922  -1.893  1.00  0.00     0.127 C 
ENDROOT
BRANCH   1   2
ATOM      2  C   UNL     1       8.383  -2.019  -2.870  1.00  0.00     0.303 C 
ATOM      3  O   UNL     1       9.519  -2.507  -3.116  1.00  0.00    -0.252 OA
BRANCH   2   4
ATOM      4  O   UNL     1       7.266  -2.543  -3.537  1.00  0.00    -0.481 OA
ATOM      5  H   UNL     1       7.417  -3.185  -4.303  1.00  0.00     0.296 HD
ENDBRANCH   2   4
ENDBRANCH   1   2
BRANCH   1   6
ATOM      6  C   UNL     1       7.669  -1.383  -0.578  1.00  0.00     0.047 C 
BRANCH   6   7
ATOM      7  C   UNL     1       6.736  -0.363  -0.034  1.00  0.00    -0.047 A 
ATOM      8  C   UNL     1       6.385   0.749  -0.786  1.00  0.00     0.004 A 
ATOM      9  C   UNL     1       6.182  -0.454   1.230  1.00  0.00     0.004 A 
ATOM     10  C   UNL     1       5.532   1.716  -0.307  1.00  0.00     0.000 A 
ATOM     11  C   UNL     1       5.327   0.516   1.709  1.00  0.00     0.000 A 
ATOM     12  C   UNL     1       4.985   1.617   0.957  1.00  0.00     0.000 A 
ENDBRANCH   6   7
ENDBRANCH   1   6
TORSDOF 4
ENDMDL
MODEL 5
REMARK VINA RESULT:      -6.8      3.393      5.077
REMARK SMILES O=C(O)CCc1ccccc1
REMARK SMILES IDX 4 1 2 2 1 3 3 4 5 6 6 7 7 8 11 9 8 10 10 11 9 12
REMARK H PARENT 3 5
REMARK Flexibility Score: inf
ROOT
ATOM      1  C   UNL     1       5.019   1.721   0.667  1.00  0.00     0.127 C 
ENDROOT
BRANCH   1   2
ATOM      2  C   UNL     1       4.500   1.105   1.901  1.00  0.00     0.303 C 
ATOM      3  O   UNL     1       5.192   0.229   2.486  1.00  0.00    -0.252 OA
BRANCH   2   4
ATOM      4  O   UNL     1       3.259   1.461   2.449  1.00  0.00    -0.481 OA
ATOM      5  H   UNL     1       3.209   2.279   3.041  1.00  0.00     0.296 HD
ENDBRANCH   2   4
ENDBRANCH   1   2
BRANCH   1   6
ATOM      6  C   UNL     1       6.528   1.884   0.698  1.00  0.00     0.047 C 
BRANCH   6   7
ATOM      7  C   UNL     1       7.173   1.078  -0.371  1.00  0.00    -0.047 A 
ATOM      8  C   UNL     1       6.432   0.178  -1.124  1.00  0.00     0.004 A 
ATOM      9  C   UNL     1       8.521   1.168  -0.666  1.00  0.00     0.004 A 
ATOM     10  C   UNL     1       7.001  -0.590  -2.114  1.00  0.00     0.000 A 
ATOM     11  C   UNL     1       9.090   0.398  -1.658  1.00  0.00     0.000 A 
ATOM     12  C   UNL     1       8.348  -0.494  -2.399  1.00  0.00     0.000 A 
ENDBRANCH   6   7
ENDBRANCH   1   6
TORSDOF 4
ENDMDL
