@<TRIPOS>MOLECULE
/home/cewinharhar/GITHUB/reincatalyze/data/processed/docking_pred/2023-Apr-25-2248_maxeplen10_maxtrainstep1000_exh16_gamma099_lrac3e-4_lrcr1e-3/93b19c8378935853b44d27bbf459025f9fc44a5e_ligand_2.pdbqt
 12 12 0 0 0
SMALL
GASTEIGER

@<TRIPOS>ATOM
      1  C          8.3910   -0.6540   -2.1270 C.3     1  UNL1        0.1270
      2  C          8.3980   -1.9120   -2.8940 C.2     1  UNL1        0.3030
      3  O          7.2980   -2.4220   -3.2420 O.2     1  UNL1       -0.2520
      4  O          9.5870   -2.5630   -3.2520 O.3     1  UNL1       -0.4810
      5  H          9.8910   -2.5170   -4.2150 H       1  UNL1        0.2960
      6  C          7.0270    0.0130   -2.1290 C.3     1  UNL1        0.0470
      7  C          6.4790    0.1080   -0.7510 C.2     1  UNL1       -0.0470
      8  C          6.6110   -0.9490    0.1380 C.2     1  UNL1        0.0040
      9  C          5.8110    1.2270   -0.2870 C.2     1  UNL1        0.0040
     10  C          6.1050   -0.8950    1.4170 C.2     1  UNL1        0.0000
     11  C          5.3050    1.2790    0.9940 C.2     1  UNL1        0.0000
     12  C          5.4390    0.2250    1.8700 C.2     1  UNL1        0.0000
@<TRIPOS>BOND
     1     5     4    1
     2     4     2    1
     3     3     2    2
     4     2     1    1
     5     6     1    1
     6     6     7    1
     7     7     9    2
     8     7     8    1
     9     9    11    1
    10     8    10    2
    11    11    12    2
    12    10    12    1
