@<TRIPOS>MOLECULE
/home/cewinharhar/GITHUB/reincatalyze/data/processed/docking_pred/2023-Apr-25-2248_maxeplen10_maxtrainstep1000_exh16_gamma099_lrac3e-4_lrcr1e-3/93b19c8378935853b44d27bbf459025f9fc44a5e_ligand_2.pdbqt
 12 12 0 0 0
SMALL
GASTEIGER

@<TRIPOS>ATOM
      1  C          5.0190    1.7210    0.6670 C.3     1  UNL1        0.1270
      2  C          4.5000    1.1050    1.9010 C.2     1  UNL1        0.3030
      3  O          5.1920    0.2290    2.4860 O.2     1  UNL1       -0.2520
      4  O          3.2590    1.4610    2.4490 O.3     1  UNL1       -0.4810
      5  H          3.2090    2.2790    3.0410 H       1  UNL1        0.2960
      6  C          6.5280    1.8840    0.6980 C.3     1  UNL1        0.0470
      7  C          7.1730    1.0780   -0.3710 C.2     1  UNL1       -0.0470
      8  C          6.4320    0.1780   -1.1240 C.2     1  UNL1        0.0040
      9  C          8.5210    1.1680   -0.6660 C.2     1  UNL1        0.0040
     10  C          7.0010   -0.5900   -2.1140 C.2     1  UNL1        0.0000
     11  C          9.0900    0.3980   -1.6580 C.2     1  UNL1        0.0000
     12  C          8.3480   -0.4940   -2.3990 C.2     1  UNL1        0.0000
@<TRIPOS>BOND
     1    12    10    2
     2    12    11    1
     3    10     8    1
     4    11     9    2
     5     8     7    2
     6     9     7    1
     7     7     6    1
     8     1     6    1
     9     1     2    1
    10     2     4    1
    11     2     3    2
    12     4     5    1
