@<TRIPOS>MOLECULE
/home/cewinharhar/GITHUB/reincatalyze/data/processed/docking_pred/2023-Apr-25-2248_maxeplen10_maxtrainstep1000_exh16_gamma099_lrac3e-4_lrcr1e-3/93c3770ef064b633c902e85f3368d9330fbaaeb8_ligand_2.pdbqt
 12 12 0 0 0
SMALL
GASTEIGER

@<TRIPOS>ATOM
      1  C          5.0220    1.7610    0.7370 C.3     1  UNL1        0.1270
      2  C          4.4770    1.0970    1.9350 C.2     1  UNL1        0.3030
      3  O          5.1490    0.1860    2.4900 O.2     1  UNL1       -0.2520
      4  O          3.2340    1.4470    2.4830 O.3     1  UNL1       -0.4810
      5  H          2.3970    1.0540    2.0730 H       1  UNL1        0.2960
      6  C          6.5350    1.8720    0.7820 C.3     1  UNL1        0.0470
      7  C          7.1590    1.0980   -0.3230 C.2     1  UNL1       -0.0470
      8  C          6.4070    0.2070   -1.0750 C.2     1  UNL1        0.0040
      9  C          8.4970    1.2100   -0.6530 C.2     1  UNL1        0.0040
     10  C          6.9580   -0.5320   -2.0970 C.2     1  UNL1        0.0000
     11  C          9.0470    0.4690   -1.6770 C.2     1  UNL1        0.0000
     12  C          8.2950   -0.4140   -2.4170 C.2     1  UNL1        0.0000
@<TRIPOS>BOND
     1    12    10    2
     2    12    11    1
     3    10     8    1
     4    11     9    2
     5     8     7    2
     6     9     7    1
     7     7     6    1
     8     1     6    1
     9     1     2    1
    10     2     4    1
    11     2     3    2
    12     5     4    1
