@<TRIPOS>MOLECULE
/home/cewinharhar/GITHUB/reincatalyze/data/processed/docking_pred/2023-Apr-25-2248_maxeplen10_maxtrainstep1000_exh16_gamma099_lrac3e-4_lrcr1e-3/93c3770ef064b633c902e85f3368d9330fbaaeb8_ligand_2.pdbqt
 12 12 0 0 0
SMALL
GASTEIGER

@<TRIPOS>ATOM
      1  C          8.2990   -1.5680    0.8970 C.3     1  UNL1        0.1270
      2  C          8.5370   -2.8410    0.1930 C.2     1  UNL1        0.3030
      3  O          9.0910   -3.7890    0.8140 O.2     1  UNL1       -0.2520
      4  O          8.1660   -3.0370   -1.1450 O.3     1  UNL1       -0.4810
      5  H          8.3750   -3.9260   -1.5790 H       1  UNL1        0.2960
      6  C          6.8610   -1.4290    1.3620 C.3     1  UNL1        0.0470
      7  C          6.2460   -0.1860    0.8270 C.2     1  UNL1       -0.0470
      8  C          6.4390    0.1870   -0.4950 C.2     1  UNL1        0.0040
      9  C          5.4720    0.6590    1.6020 C.2     1  UNL1        0.0040
     10  C          5.8930    1.3370   -1.0170 C.2     1  UNL1        0.0000
     11  C          4.9250    1.8110    1.0780 C.2     1  UNL1        0.0000
     12  C          5.1220    2.1750   -0.2350 C.2     1  UNL1        0.0000
@<TRIPOS>BOND
     1     5     4    1
     2     4     2    1
     3    10     8    1
     4    10    12    2
     5     8     7    2
     6    12    11    1
     7     2     3    2
     8     2     1    1
     9     7     6    1
    10     7     9    1
    11     1     6    1
    12    11     9    2
