@<TRIPOS>MOLECULE
/home/cewinharhar/GITHUB/reincatalyze/data/processed/docking_pred/2023-Apr-25-2248_maxeplen10_maxtrainstep1000_exh16_gamma099_lrac3e-4_lrcr1e-3/93c3770ef064b633c902e85f3368d9330fbaaeb8_ligand_2.pdbqt
 12 12 0 0 0
SMALL
GASTEIGER

@<TRIPOS>ATOM
      1  C          8.3890   -0.6390   -2.1290 C.3     1  UNL1        0.1270
      2  C          8.4200   -1.8930   -2.9020 C.2     1  UNL1        0.3030
      3  O          9.5250   -2.4680   -3.0920 O.2     1  UNL1       -0.2520
      4  O          7.2590   -2.4710   -3.4360 O.3     1  UNL1       -0.4810
      5  H          6.7200   -1.9410   -4.1080 H       1  UNL1        0.2960
      6  C          7.0100   -0.0040   -2.1190 C.3     1  UNL1        0.0470
      7  C          6.4790    0.0950   -0.7350 C.2     1  UNL1       -0.0470
      8  C          6.5970   -0.9710    0.1460 C.2     1  UNL1        0.0040
      9  C          5.8400    1.2240   -0.2560 C.2     1  UNL1        0.0040
     10  C          6.1060   -0.9150    1.4310 C.2     1  UNL1        0.0000
     11  C          5.3490    1.2790    1.0300 C.2     1  UNL1        0.0000
     12  C          5.4690    0.2170    1.8980 C.2     1  UNL1        0.0000
@<TRIPOS>BOND
     1     5     4    1
     2     4     2    1
     3     3     2    2
     4     2     1    1
     5     1     6    1
     6     6     7    1
     7     7     9    2
     8     7     8    1
     9     9    11    1
    10     8    10    2
    11    11    12    2
    12    10    12    1
