MODEL 1
REMARK VINA RESULT:      -7.3      0.000      0.000
REMARK SMILES O=C(O)CCc1ccccc1
REMARK SMILES IDX 4 1 2 2 1 3 3 4 5 6 6 7 7 8 11 9 8 10 10 11 9 12
REMARK H PARENT 3 5
REMARK Flexibility Score: inf
ROOT
ATOM      1  C   UNL     1       8.389  -0.639  -2.129  1.00  0.00     0.127 C 
ENDROOT
BRANCH   1   2
ATOM      2  C   UNL     1       8.420  -1.893  -2.902  1.00  0.00     0.303 C 
ATOM      3  O   UNL     1       9.525  -2.468  -3.092  1.00  0.00    -0.252 OA
BRANCH   2   4
ATOM      4  O   UNL     1       7.259  -2.471  -3.436  1.00  0.00    -0.481 OA
ATOM      5  H   UNL     1       6.720  -1.941  -4.108  1.00  0.00     0.296 HD
ENDBRANCH   2   4
ENDBRANCH   1   2
BRANCH   1   6
ATOM      6  C   UNL     1       7.010  -0.004  -2.119  1.00  0.00     0.047 C 
BRANCH   6   7
ATOM      7  C   UNL     1       6.479   0.095  -0.735  1.00  0.00    -0.047 A 
ATOM      8  C   UNL     1       6.597  -0.971   0.146  1.00  0.00     0.004 A 
ATOM      9  C   UNL     1       5.840   1.224  -0.256  1.00  0.00     0.004 A 
ATOM     10  C   UNL     1       6.106  -0.915   1.431  1.00  0.00     0.000 A 
ATOM     11  C   UNL     1       5.349   1.279   1.030  1.00  0.00     0.000 A 
ATOM     12  C   UNL     1       5.469   0.217   1.898  1.00  0.00     0.000 A 
ENDBRANCH   6   7
ENDBRANCH   1   6
TORSDOF 4
ENDMDL
MODEL 2
REMARK VINA RESULT:      -7.3      0.122      1.724
REMARK SMILES O=C(O)CCc1ccccc1
REMARK SMILES IDX 4 1 2 2 1 3 3 4 5 6 6 7 7 8 11 9 8 10 10 11 9 12
REMARK H PARENT 3 5
REMARK Flexibility Score: inf
ROOT
ATOM      1  C   UNL     1       8.406  -0.694  -2.079  1.00  0.00     0.127 C 
ENDROOT
BRANCH   1   2
ATOM      2  C   UNL     1       8.401  -1.934  -2.875  1.00  0.00     0.303 C 
ATOM      3  O   UNL     1       7.298  -2.420  -3.244  1.00  0.00    -0.252 OA
BRANCH   2   4
ATOM      4  O   UNL     1       9.584  -2.594  -3.240  1.00  0.00    -0.481 OA
ATOM      5  H   UNL     1      10.225  -2.874  -2.511  1.00  0.00     0.296 HD
ENDBRANCH   2   4
ENDBRANCH   1   2
BRANCH   1   6
ATOM      6  C   UNL     1       7.061   0.009  -2.103  1.00  0.00     0.047 C 
BRANCH   6   7
ATOM      7  C   UNL     1       6.480   0.094  -0.738  1.00  0.00    -0.047 A 
ATOM      8  C   UNL     1       5.796   1.230  -0.329  1.00  0.00     0.004 A 
ATOM      9  C   UNL     1       6.592  -0.927   0.188  1.00  0.00     0.004 A 
ATOM     10  C   UNL     1       5.256   1.344   0.931  1.00  0.00     0.000 A 
ATOM     11  C   UNL     1       6.051  -0.811   1.451  1.00  0.00     0.000 A 
ATOM     12  C   UNL     1       5.375   0.320   1.849  1.00  0.00     0.000 A 
ENDBRANCH   6   7
ENDBRANCH   1   6
TORSDOF 4
ENDMDL
MODEL 3
REMARK VINA RESULT:      -6.8      3.390      5.072
REMARK SMILES O=C(O)CCc1ccccc1
REMARK SMILES IDX 4 1 2 2 1 3 3 4 5 6 6 7 7 8 11 9 8 10 10 11 9 12
REMARK H PARENT 3 5
REMARK Flexibility Score: inf
ROOT
ATOM      1  C   UNL     1       5.022   1.761   0.737  1.00  0.00     0.127 C 
ENDROOT
BRANCH   1   2
ATOM      2  C   UNL     1       4.477   1.097   1.935  1.00  0.00     0.303 C 
ATOM      3  O   UNL     1       5.149   0.186   2.490  1.00  0.00    -0.252 OA
BRANCH   2   4
ATOM      4  O   UNL     1       3.234   1.447   2.483  1.00  0.00    -0.481 OA
ATOM      5  H   UNL     1       2.397   1.054   2.073  1.00  0.00     0.296 HD
ENDBRANCH   2   4
ENDBRANCH   1   2
BRANCH   1   6
ATOM      6  C   UNL     1       6.535   1.872   0.782  1.00  0.00     0.047 C 
BRANCH   6   7
ATOM      7  C   UNL     1       7.159   1.098  -0.323  1.00  0.00    -0.047 A 
ATOM      8  C   UNL     1       6.407   0.207  -1.075  1.00  0.00     0.004 A 
ATOM      9  C   UNL     1       8.497   1.210  -0.653  1.00  0.00     0.004 A 
ATOM     10  C   UNL     1       6.958  -0.532  -2.097  1.00  0.00     0.000 A 
ATOM     11  C   UNL     1       9.047   0.469  -1.677  1.00  0.00     0.000 A 
ATOM     12  C   UNL     1       8.295  -0.414  -2.417  1.00  0.00     0.000 A 
ENDBRANCH   6   7
ENDBRANCH   1   6
TORSDOF 4
ENDMDL
MODEL 4
REMARK VINA RESULT:      -6.6      1.949      2.643
REMARK SMILES O=C(O)CCc1ccccc1
REMARK SMILES IDX 4 1 2 2 1 3 3 4 5 6 6 7 7 8 11 9 8 10 10 11 9 12
REMARK H PARENT 3 5
REMARK Flexibility Score: inf
ROOT
ATOM      1  C   UNL     1       8.210   0.245  -2.087  1.00  0.00     0.127 C 
ENDROOT
BRANCH   1   2
ATOM      2  C   UNL     1       9.387   0.380  -1.209  1.00  0.00     0.303 C 
ATOM      3  O   UNL     1       9.485  -0.367  -0.198  1.00  0.00    -0.252 OA
BRANCH   2   4
ATOM      4  O   UNL     1      10.404   1.311  -1.461  1.00  0.00    -0.481 OA
ATOM      5  H   UNL     1      11.210   1.324  -0.851  1.00  0.00     0.296 HD
ENDBRANCH   2   4
ENDBRANCH   1   2
BRANCH   1   6
ATOM      6  C   UNL     1       7.147  -0.657  -1.486  1.00  0.00     0.047 C 
BRANCH   6   7
ATOM      7  C   UNL     1       6.366   0.060  -0.445  1.00  0.00    -0.047 A 
ATOM      8  C   UNL     1       5.812   1.305  -0.708  1.00  0.00     0.004 A 
ATOM      9  C   UNL     1       6.158  -0.455   0.821  1.00  0.00     0.004 A 
ATOM     10  C   UNL     1       5.092   1.998   0.238  1.00  0.00     0.000 A 
ATOM     11  C   UNL     1       5.437   0.241   1.768  1.00  0.00     0.000 A 
ATOM     12  C   UNL     1       4.891   1.476   1.500  1.00  0.00     0.000 A 
ENDBRANCH   6   7
ENDBRANCH   1   6
TORSDOF 4
ENDMDL
MODEL 5
REMARK VINA RESULT:      -6.5      1.878      2.806
REMARK SMILES O=C(O)CCc1ccccc1
REMARK SMILES IDX 4 1 2 2 1 3 3 4 5 6 6 7 7 8 11 9 8 10 10 11 9 12
REMARK H PARENT 3 5
REMARK Flexibility Score: inf
ROOT
ATOM      1  C   UNL     1       8.299  -1.568   0.897  1.00  0.00     0.127 C 
ENDROOT
BRANCH   1   2
ATOM      2  C   UNL     1       8.537  -2.841   0.193  1.00  0.00     0.303 C 
ATOM      3  O   UNL     1       9.091  -3.789   0.814  1.00  0.00    -0.252 OA
BRANCH   2   4
ATOM      4  O   UNL     1       8.166  -3.037  -1.145  1.00  0.00    -0.481 OA
ATOM      5  H   UNL     1       8.375  -3.926  -1.579  1.00  0.00     0.296 HD
ENDBRANCH   2   4
ENDBRANCH   1   2
BRANCH   1   6
ATOM      6  C   UNL     1       6.861  -1.429   1.362  1.00  0.00     0.047 C 
BRANCH   6   7
ATOM      7  C   UNL     1       6.246  -0.186   0.827  1.00  0.00    -0.047 A 
ATOM      8  C   UNL     1       6.439   0.187  -0.495  1.00  0.00     0.004 A 
ATOM      9  C   UNL     1       5.472   0.659   1.602  1.00  0.00     0.004 A 
ATOM     10  C   UNL     1       5.893   1.337  -1.017  1.00  0.00     0.000 A 
ATOM     11  C   UNL     1       4.925   1.811   1.078  1.00  0.00     0.000 A 
ATOM     12  C   UNL     1       5.122   2.175  -0.235  1.00  0.00     0.000 A 
ENDBRANCH   6   7
ENDBRANCH   1   6
TORSDOF 4
ENDMDL
