@<TRIPOS>MOLECULE
/home/cewinharhar/GITHUB/reincatalyze/data/processed/docking_pred/2023-Apr-25-2248_maxeplen10_maxtrainstep1000_exh16_gamma099_lrac3e-4_lrcr1e-3/93c3770ef064b633c902e85f3368d9330fbaaeb8_ligand_2.pdbqt
 12 12 0 0 0
SMALL
GASTEIGER

@<TRIPOS>ATOM
      1  C          8.4060   -0.6940   -2.0790 C.3     1  UNL1        0.1270
      2  C          8.4010   -1.9340   -2.8750 C.2     1  UNL1        0.3030
      3  O          7.2980   -2.4200   -3.2440 O.2     1  UNL1       -0.2520
      4  O          9.5840   -2.5940   -3.2400 O.3     1  UNL1       -0.4810
      5  H         10.2250   -2.8740   -2.5110 H       1  UNL1        0.2960
      6  C          7.0610    0.0090   -2.1030 C.3     1  UNL1        0.0470
      7  C          6.4800    0.0940   -0.7380 C.2     1  UNL1       -0.0470
      8  C          5.7960    1.2300   -0.3290 C.2     1  UNL1        0.0040
      9  C          6.5920   -0.9270    0.1880 C.2     1  UNL1        0.0040
     10  C          5.2560    1.3440    0.9310 C.2     1  UNL1        0.0000
     11  C          6.0510   -0.8110    1.4510 C.2     1  UNL1        0.0000
     12  C          5.3750    0.3200    1.8490 C.2     1  UNL1        0.0000
@<TRIPOS>BOND
     1     3     2    2
     2     4     2    1
     3     4     5    1
     4     2     1    1
     5     6     1    1
     6     6     7    1
     7     7     8    2
     8     7     9    1
     9     8    10    1
    10     9    11    2
    11    10    12    2
    12    11    12    1
