@<TRIPOS>MOLECULE
/home/cewinharhar/GITHUB/reincatalyze/data/processed/docking_pred/2023-Apr-25-2248_maxeplen10_maxtrainstep1000_exh16_gamma099_lrac3e-4_lrcr1e-3/93c3770ef064b633c902e85f3368d9330fbaaeb8_ligand_2.pdbqt
 12 12 0 0 0
SMALL
GASTEIGER

@<TRIPOS>ATOM
      1  C          8.2100    0.2450   -2.0870 C.3     1  UNL1        0.1270
      2  C          9.3870    0.3800   -1.2090 C.2     1  UNL1        0.3030
      3  O          9.4850   -0.3670   -0.1980 O.2     1  UNL1       -0.2520
      4  O         10.4040    1.3110   -1.4610 O.3     1  UNL1       -0.4810
      5  H         11.2100    1.3240   -0.8510 H       1  UNL1        0.2960
      6  C          7.1470   -0.6570   -1.4860 C.3     1  UNL1        0.0470
      7  C          6.3660    0.0600   -0.4450 C.2     1  UNL1       -0.0470
      8  C          5.8120    1.3050   -0.7080 C.2     1  UNL1        0.0040
      9  C          6.1580   -0.4550    0.8210 C.2     1  UNL1        0.0040
     10  C          5.0920    1.9980    0.2380 C.2     1  UNL1        0.0000
     11  C          5.4370    0.2410    1.7680 C.2     1  UNL1        0.0000
     12  C          4.8910    1.4760    1.5000 C.2     1  UNL1        0.0000
@<TRIPOS>BOND
     1     1     6    1
     2     1     2    1
     3     6     7    1
     4     4     2    1
     5     4     5    1
     6     2     3    2
     7     8     7    2
     8     8    10    1
     9     7     9    1
    10    10    12    2
    11     9    11    2
    12    12    11    1
