@<TRIPOS>MOLECULE
/home/cewinharhar/GITHUB/reincatalyze/data/processed/docking_pred/2023-Apr-25-2248_maxeplen10_maxtrainstep1000_exh16_gamma099_lrac3e-4_lrcr1e-3/93f5b296c54773c487a3666b5d29638d3a74aef5_ligand_2.pdbqt
 12 12 0 0 0
SMALL
GASTEIGER

@<TRIPOS>ATOM
      1  C          5.0050    1.7530    0.7180 C.3     1  UNL1        0.1270
      2  C          4.4730    1.0940    1.9240 C.2     1  UNL1        0.3030
      3  O          5.1510    0.1840    2.4740 O.2     1  UNL1       -0.2520
      4  O          3.2360    1.4450    2.4830 O.3     1  UNL1       -0.4810
      5  H          2.4320    0.8660    2.2810 H       1  UNL1        0.2960
      6  C          6.5170    1.8870    0.7580 C.3     1  UNL1        0.0470
      7  C          7.1500    1.1020   -0.3340 C.2     1  UNL1       -0.0470
      8  C          6.4020    0.2140   -1.0930 C.2     1  UNL1        0.0040
      9  C          8.4940    1.2020   -0.6450 C.2     1  UNL1        0.0040
     10  C          6.9600   -0.5350   -2.1030 C.2     1  UNL1        0.0000
     11  C          9.0520    0.4510   -1.6580 C.2     1  UNL1        0.0000
     12  C          8.3030   -0.4300   -2.4050 C.2     1  UNL1        0.0000
@<TRIPOS>BOND
     1    12    10    2
     2    12    11    1
     3    10     8    1
     4    11     9    2
     5     8     7    2
     6     9     7    1
     7     7     6    1
     8     1     6    1
     9     1     2    1
    10     2     3    2
    11     2     4    1
    12     5     4    1
