@<TRIPOS>MOLECULE
/home/cewinharhar/GITHUB/reincatalyze/data/processed/docking_pred/2023-Apr-25-2248_maxeplen10_maxtrainstep1000_exh16_gamma099_lrac3e-4_lrcr1e-3/93f5b296c54773c487a3666b5d29638d3a74aef5_ligand_2.pdbqt
 12 12 0 0 0
SMALL
GASTEIGER

@<TRIPOS>ATOM
      1  C          8.3020    0.1330   -2.2140 C.3     1  UNL1        0.1270
      2  C          9.4030    0.3410   -1.2570 C.2     1  UNL1        0.3030
      3  O          9.4690   -0.3880   -0.2300 O.2     1  UNL1       -0.2520
      4  O         10.3850    1.3230   -1.4500 O.3     1  UNL1       -0.4810
      5  H         10.2940    1.9500   -2.2380 H       1  UNL1        0.2960
      6  C          7.1470   -0.6390   -1.6000 C.3     1  UNL1        0.0470
      7  C          6.3730    0.2160   -0.6630 C.2     1  UNL1       -0.0470
      8  C          6.1320   -0.1980    0.6390 C.2     1  UNL1        0.0040
      9  C          5.8500    1.4430   -1.0280 C.2     1  UNL1        0.0040
     10  C          5.4110    0.5660    1.5270 C.2     1  UNL1        0.0000
     11  C          5.1270    2.2080   -0.1370 C.2     1  UNL1        0.0000
     12  C          4.8920    1.7890    1.1530 C.2     1  UNL1        0.0000
@<TRIPOS>BOND
     1     5     4    1
     2     1     6    1
     3     1     2    1
     4     6     7    1
     5     4     2    1
     6     2     3    2
     7     9     7    2
     8     9    11    1
     9     7     8    1
    10    11    12    2
    11     8    10    2
    12    12    10    1
