MODEL 1
REMARK VINA RESULT:      -7.3      0.000      0.000
REMARK SMILES O=C(O)CCc1ccccc1
REMARK SMILES IDX 4 1 2 2 1 3 3 4 5 6 6 7 7 8 11 9 8 10 10 11 9 12
REMARK H PARENT 3 5
REMARK Flexibility Score: inf
ROOT
ATOM      1  C   UNL     1       8.413  -0.639  -2.143  1.00  0.00     0.127 C 
ENDROOT
BRANCH   1   2
ATOM      2  C   UNL     1       8.437  -1.901  -2.904  1.00  0.00     0.303 C 
ATOM      3  O   UNL     1       9.540  -2.483  -3.089  1.00  0.00    -0.252 OA
BRANCH   2   4
ATOM      4  O   UNL     1       7.273  -2.481  -3.429  1.00  0.00    -0.481 OA
ATOM      5  H   UNL     1       7.284  -2.805  -4.387  1.00  0.00     0.296 HD
ENDBRANCH   2   4
ENDBRANCH   1   2
BRANCH   1   6
ATOM      6  C   UNL     1       7.035  -0.003  -2.132  1.00  0.00     0.047 C 
BRANCH   6   7
ATOM      7  C   UNL     1       6.491   0.067  -0.751  1.00  0.00    -0.047 A 
ATOM      8  C   UNL     1       5.841   1.208  -0.302  1.00  0.00     0.004 A 
ATOM      9  C   UNL     1       6.605  -0.975   0.152  1.00  0.00     0.004 A 
ATOM     10  C   UNL     1       5.336   1.307   0.974  1.00  0.00     0.000 A 
ATOM     11  C   UNL     1       6.098  -0.874   1.429  1.00  0.00     0.000 A 
ATOM     12  C   UNL     1       5.457   0.262   1.868  1.00  0.00     0.000 A 
ENDBRANCH   6   7
ENDBRANCH   1   6
TORSDOF 4
ENDMDL
MODEL 2
REMARK VINA RESULT:      -7.3      0.041      1.421
REMARK SMILES O=C(O)CCc1ccccc1
REMARK SMILES IDX 4 1 2 2 1 3 3 4 5 6 6 7 7 8 11 9 8 10 10 11 9 12
REMARK H PARENT 3 5
REMARK Flexibility Score: inf
ROOT
ATOM      1  C   UNL     1       8.391  -0.601  -2.172  1.00  0.00     0.127 C 
ENDROOT
BRANCH   1   2
ATOM      2  C   UNL     1       8.434  -1.875  -2.911  1.00  0.00     0.303 C 
ATOM      3  O   UNL     1       9.546  -2.444  -3.087  1.00  0.00    -0.252 OA
BRANCH   2   4
ATOM      4  O   UNL     1       7.278  -2.480  -3.426  1.00  0.00    -0.481 OA
ATOM      5  H   UNL     1       6.859  -2.090  -4.259  1.00  0.00     0.296 HD
ENDBRANCH   2   4
ENDBRANCH   1   2
BRANCH   1   6
ATOM      6  C   UNL     1       7.000   0.006  -2.156  1.00  0.00     0.047 C 
BRANCH   6   7
ATOM      7  C   UNL     1       6.479   0.106  -0.767  1.00  0.00    -0.047 A 
ATOM      8  C   UNL     1       6.599  -0.961   0.112  1.00  0.00     0.004 A 
ATOM      9  C   UNL     1       5.848   1.238  -0.284  1.00  0.00     0.004 A 
ATOM     10  C   UNL     1       6.118  -0.904   1.400  1.00  0.00     0.000 A 
ATOM     11  C   UNL     1       5.367   1.293   1.006  1.00  0.00     0.000 A 
ATOM     12  C   UNL     1       5.489   0.230   1.873  1.00  0.00     0.000 A 
ENDBRANCH   6   7
ENDBRANCH   1   6
TORSDOF 4
ENDMDL
MODEL 3
REMARK VINA RESULT:      -6.9      1.027      1.944
REMARK SMILES O=C(O)CCc1ccccc1
REMARK SMILES IDX 4 1 2 2 1 3 3 4 5 6 6 7 7 8 11 9 8 10 10 11 9 12
REMARK H PARENT 3 5
REMARK Flexibility Score: inf
ROOT
ATOM      1  C   UNL     1       7.359  -1.456  -2.030  1.00  0.00     0.127 C 
ENDROOT
BRANCH   1   2
ATOM      2  C   UNL     1       8.758  -1.421  -2.493  1.00  0.00     0.303 C 
ATOM      3  O   UNL     1       9.504  -0.476  -2.118  1.00  0.00    -0.252 OA
BRANCH   2   4
ATOM      4  O   UNL     1       9.290  -2.405  -3.338  1.00  0.00    -0.481 OA
ATOM      5  H   UNL     1       8.852  -2.560  -4.237  1.00  0.00     0.296 HD
ENDBRANCH   2   4
ENDBRANCH   1   2
BRANCH   1   6
ATOM      6  C   UNL     1       7.256  -1.441  -0.515  1.00  0.00     0.047 C 
BRANCH   6   7
ATOM      7  C   UNL     1       6.463  -0.275  -0.046  1.00  0.00    -0.047 A 
ATOM      8  C   UNL     1       5.938  -0.247   1.238  1.00  0.00     0.004 A 
ATOM      9  C   UNL     1       6.199   0.821  -0.847  1.00  0.00     0.004 A 
ATOM     10  C   UNL     1       5.191   0.813   1.698  1.00  0.00     0.000 A 
ATOM     11  C   UNL     1       5.451   1.882  -0.384  1.00  0.00     0.000 A 
ATOM     12  C   UNL     1       4.932   1.902   0.891  1.00  0.00     0.000 A 
ENDBRANCH   6   7
ENDBRANCH   1   6
TORSDOF 4
ENDMDL
MODEL 4
REMARK VINA RESULT:      -6.8      3.389      5.086
REMARK SMILES O=C(O)CCc1ccccc1
REMARK SMILES IDX 4 1 2 2 1 3 3 4 5 6 6 7 7 8 11 9 8 10 10 11 9 12
REMARK H PARENT 3 5
REMARK Flexibility Score: inf
ROOT
ATOM      1  C   UNL     1       5.005   1.753   0.718  1.00  0.00     0.127 C 
ENDROOT
BRANCH   1   2
ATOM      2  C   UNL     1       4.473   1.094   1.924  1.00  0.00     0.303 C 
ATOM      3  O   UNL     1       5.151   0.184   2.474  1.00  0.00    -0.252 OA
BRANCH   2   4
ATOM      4  O   UNL     1       3.236   1.445   2.483  1.00  0.00    -0.481 OA
ATOM      5  H   UNL     1       2.432   0.866   2.281  1.00  0.00     0.296 HD
ENDBRANCH   2   4
ENDBRANCH   1   2
BRANCH   1   6
ATOM      6  C   UNL     1       6.517   1.887   0.758  1.00  0.00     0.047 C 
BRANCH   6   7
ATOM      7  C   UNL     1       7.150   1.102  -0.334  1.00  0.00    -0.047 A 
ATOM      8  C   UNL     1       6.402   0.214  -1.093  1.00  0.00     0.004 A 
ATOM      9  C   UNL     1       8.494   1.202  -0.645  1.00  0.00     0.004 A 
ATOM     10  C   UNL     1       6.960  -0.535  -2.103  1.00  0.00     0.000 A 
ATOM     11  C   UNL     1       9.052   0.451  -1.658  1.00  0.00     0.000 A 
ATOM     12  C   UNL     1       8.303  -0.430  -2.405  1.00  0.00     0.000 A 
ENDBRANCH   6   7
ENDBRANCH   1   6
TORSDOF 4
ENDMDL
MODEL 5
REMARK VINA RESULT:      -6.6      1.940      2.669
REMARK SMILES O=C(O)CCc1ccccc1
REMARK SMILES IDX 4 1 2 2 1 3 3 4 5 6 6 7 7 8 11 9 8 10 10 11 9 12
REMARK H PARENT 3 5
REMARK Flexibility Score: inf
ROOT
ATOM      1  C   UNL     1       8.302   0.133  -2.214  1.00  0.00     0.127 C 
ENDROOT
BRANCH   1   2
ATOM      2  C   UNL     1       9.403   0.341  -1.257  1.00  0.00     0.303 C 
ATOM      3  O   UNL     1       9.469  -0.388  -0.230  1.00  0.00    -0.252 OA
BRANCH   2   4
ATOM      4  O   UNL     1      10.385   1.323  -1.450  1.00  0.00    -0.481 OA
ATOM      5  H   UNL     1      10.294   1.950  -2.238  1.00  0.00     0.296 HD
ENDBRANCH   2   4
ENDBRANCH   1   2
BRANCH   1   6
ATOM      6  C   UNL     1       7.147  -0.639  -1.600  1.00  0.00     0.047 C 
BRANCH   6   7
ATOM      7  C   UNL     1       6.373   0.216  -0.663  1.00  0.00    -0.047 A 
ATOM      8  C   UNL     1       6.132  -0.198   0.639  1.00  0.00     0.004 A 
ATOM      9  C   UNL     1       5.850   1.443  -1.028  1.00  0.00     0.004 A 
ATOM     10  C   UNL     1       5.411   0.566   1.527  1.00  0.00     0.000 A 
ATOM     11  C   UNL     1       5.127   2.208  -0.137  1.00  0.00     0.000 A 
ATOM     12  C   UNL     1       4.892   1.789   1.153  1.00  0.00     0.000 A 
ENDBRANCH   6   7
ENDBRANCH   1   6
TORSDOF 4
ENDMDL
