@<TRIPOS>MOLECULE
/home/cewinharhar/GITHUB/reincatalyze/data/processed/docking_pred/2023-Apr-25-2248_maxeplen10_maxtrainstep1000_exh16_gamma099_lrac3e-4_lrcr1e-3/93f5b296c54773c487a3666b5d29638d3a74aef5_ligand_2.pdbqt
 12 12 0 0 0
SMALL
GASTEIGER

@<TRIPOS>ATOM
      1  C          8.3910   -0.6010   -2.1720 C.3     1  UNL1        0.1270
      2  C          8.4340   -1.8750   -2.9110 C.2     1  UNL1        0.3030
      3  O          9.5460   -2.4440   -3.0870 O.2     1  UNL1       -0.2520
      4  O          7.2780   -2.4800   -3.4260 O.3     1  UNL1       -0.4810
      5  H          6.8590   -2.0900   -4.2590 H       1  UNL1        0.2960
      6  C          7.0000    0.0060   -2.1560 C.3     1  UNL1        0.0470
      7  C          6.4790    0.1060   -0.7670 C.2     1  UNL1       -0.0470
      8  C          6.5990   -0.9610    0.1120 C.2     1  UNL1        0.0040
      9  C          5.8480    1.2380   -0.2840 C.2     1  UNL1        0.0040
     10  C          6.1180   -0.9040    1.4000 C.2     1  UNL1        0.0000
     11  C          5.3670    1.2930    1.0060 C.2     1  UNL1        0.0000
     12  C          5.4890    0.2300    1.8730 C.2     1  UNL1        0.0000
@<TRIPOS>BOND
     1     5     4    1
     2     4     2    1
     3     3     2    2
     4     2     1    1
     5     1     6    1
     6     6     7    1
     7     7     9    2
     8     7     8    1
     9     9    11    1
    10     8    10    2
    11    11    12    2
    12    10    12    1
