@<TRIPOS>MOLECULE
/home/cewinharhar/GITHUB/reincatalyze/data/processed/docking_pred/2023-Apr-25-2248_maxeplen10_maxtrainstep1000_exh16_gamma099_lrac3e-4_lrcr1e-3/93f5b296c54773c487a3666b5d29638d3a74aef5_ligand_2.pdbqt
 12 12 0 0 0
SMALL
GASTEIGER

@<TRIPOS>ATOM
      1  C          7.3590   -1.4560   -2.0300 C.3     1  UNL1        0.1270
      2  C          8.7580   -1.4210   -2.4930 C.2     1  UNL1        0.3030
      3  O          9.5040   -0.4760   -2.1180 O.2     1  UNL1       -0.2520
      4  O          9.2900   -2.4050   -3.3380 O.3     1  UNL1       -0.4810
      5  H          8.8520   -2.5600   -4.2370 H       1  UNL1        0.2960
      6  C          7.2560   -1.4410   -0.5150 C.3     1  UNL1        0.0470
      7  C          6.4630   -0.2750   -0.0460 C.2     1  UNL1       -0.0470
      8  C          5.9380   -0.2470    1.2380 C.2     1  UNL1        0.0040
      9  C          6.1990    0.8210   -0.8470 C.2     1  UNL1        0.0040
     10  C          5.1910    0.8130    1.6980 C.2     1  UNL1        0.0000
     11  C          5.4510    1.8820   -0.3840 C.2     1  UNL1        0.0000
     12  C          4.9320    1.9020    0.8910 C.2     1  UNL1        0.0000
@<TRIPOS>BOND
     1     5     4    1
     2     4     2    1
     3     2     3    2
     4     2     1    1
     5     1     6    1
     6     9    11    1
     7     9     7    2
     8     6     7    1
     9    11    12    2
    10     7     8    1
    11    12    10    1
    12     8    10    2
