@<TRIPOS>MOLECULE
/home/cewinharhar/GITHUB/reincatalyze/data/processed/docking_pred/2023-Apr-25-2248_maxeplen10_maxtrainstep1000_exh16_gamma099_lrac3e-4_lrcr1e-3/93f5b296c54773c487a3666b5d29638d3a74aef5_ligand_2.pdbqt
 12 12 0 0 0
SMALL
GASTEIGER

@<TRIPOS>ATOM
      1  C          8.4130   -0.6390   -2.1430 C.3     1  UNL1        0.1270
      2  C          8.4370   -1.9010   -2.9040 C.2     1  UNL1        0.3030
      3  O          9.5400   -2.4830   -3.0890 O.2     1  UNL1       -0.2520
      4  O          7.2730   -2.4810   -3.4290 O.3     1  UNL1       -0.4810
      5  H          7.2840   -2.8050   -4.3870 H       1  UNL1        0.2960
      6  C          7.0350   -0.0030   -2.1320 C.3     1  UNL1        0.0470
      7  C          6.4910    0.0670   -0.7510 C.2     1  UNL1       -0.0470
      8  C          5.8410    1.2080   -0.3020 C.2     1  UNL1        0.0040
      9  C          6.6050   -0.9750    0.1520 C.2     1  UNL1        0.0040
     10  C          5.3360    1.3070    0.9740 C.2     1  UNL1        0.0000
     11  C          6.0980   -0.8740    1.4290 C.2     1  UNL1        0.0000
     12  C          5.4570    0.2620    1.8680 C.2     1  UNL1        0.0000
@<TRIPOS>BOND
     1     5     4    1
     2     4     2    1
     3     3     2    2
     4     2     1    1
     5     1     6    1
     6     6     7    1
     7     7     8    2
     8     7     9    1
     9     8    10    1
    10     9    11    2
    11    10    12    2
    12    11    12    1
