@<TRIPOS>MOLECULE
/home/cewinharhar/GITHUB/reincatalyze/data/processed/docking_pred/2023-Apr-25-2248_maxeplen10_maxtrainstep1000_exh16_gamma099_lrac3e-4_lrcr1e-3/9545d038953ad0bd3b50a81295f717fe73892d7b_ligand_2.pdbqt
 12 12 0 0 0
SMALL
GASTEIGER

@<TRIPOS>ATOM
      1  C          8.4110   -0.5980   -2.2170 C.3     1  UNL1        0.1270
      2  C          8.4540   -1.8910   -2.9230 C.2     1  UNL1        0.3030
      3  O          9.5660   -2.4650   -3.0820 O.2     1  UNL1       -0.2520
      4  O          7.2990   -2.5090   -3.4230 O.3     1  UNL1       -0.4810
      5  H          6.7790   -3.1270   -2.8150 H       1  UNL1        0.2960
      6  C          7.0130   -0.0060   -2.1880 C.3     1  UNL1        0.0470
      7  C          6.4920    0.0610   -0.7980 C.2     1  UNL1       -0.0470
      8  C          5.8630    1.2080   -0.3330 C.2     1  UNL1        0.0040
      9  C          6.6090   -0.9860    0.0970 C.2     1  UNL1        0.0040
     10  C          5.3790    1.3050    0.9520 C.2     1  UNL1        0.0000
     11  C          6.1240   -0.8870    1.3830 C.2     1  UNL1        0.0000
     12  C          5.5020    0.2540    1.8380 C.2     1  UNL1        0.0000
@<TRIPOS>BOND
     1     4     2    1
     2     4     5    1
     3     3     2    2
     4     2     1    1
     5     1     6    1
     6     6     7    1
     7     7     8    2
     8     7     9    1
     9     8    10    1
    10     9    11    2
    11    10    12    2
    12    11    12    1
