@<TRIPOS>MOLECULE
/home/cewinharhar/GITHUB/reincatalyze/data/processed/docking_pred/2023-Apr-25-2248_maxeplen10_maxtrainstep1000_exh16_gamma099_lrac3e-4_lrcr1e-3/9545d038953ad0bd3b50a81295f717fe73892d7b_ligand_2.pdbqt
 12 12 0 0 0
SMALL
GASTEIGER

@<TRIPOS>ATOM
      1  C          8.3980   -0.7340   -2.0360 C.3     1  UNL1        0.1270
      2  C          8.4030   -1.9480   -2.8710 C.2     1  UNL1        0.3030
      3  O          7.3030   -2.4330   -3.2530 O.2     1  UNL1       -0.2520
      4  O          9.5910   -2.5840   -3.2590 O.3     1  UNL1       -0.4810
      5  H          9.9840   -2.3650   -4.1640 H       1  UNL1        0.2960
      6  C          7.0700   -0.0010   -2.0950 C.3     1  UNL1        0.0470
      7  C          6.4790    0.1410   -0.7390 C.2     1  UNL1       -0.0470
      8  C          6.5890   -0.8820    0.1920 C.2     1  UNL1        0.0040
      9  C          5.7910    1.2710   -0.3370 C.2     1  UNL1        0.0040
     10  C          6.0440   -0.7860    1.4520 C.2     1  UNL1        0.0000
     11  C          5.2450    1.3660    0.9250 C.2     1  UNL1        0.0000
     12  C          5.3580    0.3460    1.8430 C.2     1  UNL1        0.0000
@<TRIPOS>BOND
     1     5     4    1
     2     4     2    1
     3     3     2    2
     4     2     1    1
     5     6     1    1
     6     6     7    1
     7     7     9    2
     8     7     8    1
     9     9    11    1
    10     8    10    2
    11    11    12    2
    12    10    12    1
