@<TRIPOS>MOLECULE
/home/cewinharhar/GITHUB/reincatalyze/data/processed/docking_pred/2023-Apr-25-2248_maxeplen10_maxtrainstep1000_exh16_gamma099_lrac3e-4_lrcr1e-3/9545d038953ad0bd3b50a81295f717fe73892d7b_ligand_2.pdbqt
 12 12 0 0 0
SMALL
GASTEIGER

@<TRIPOS>ATOM
      1  C          8.2270   -1.6850    1.1140 C.3     1  UNL1        0.1270
      2  C          8.5370   -2.8870    0.3200 C.2     1  UNL1        0.3030
      3  O          9.1980   -3.8190    0.8540 O.2     1  UNL1       -0.2520
      4  O          8.1220   -3.0320   -1.0110 O.3     1  UNL1       -0.4810
      5  H          7.3770   -2.4400   -1.3520 H       1  UNL1        0.2960
      6  C          6.7450   -1.5650    1.4190 C.3     1  UNL1        0.0470
      7  C          6.1900   -0.2980    0.8740 C.2     1  UNL1       -0.0470
      8  C          6.4440    0.0800   -0.4370 C.2     1  UNL1        0.0040
      9  C          5.4130    0.5630    1.6270 C.2     1  UNL1        0.0040
     10  C          5.9530    1.2510   -0.9670 C.2     1  UNL1        0.0000
     11  C          4.9220    1.7360    1.0940 C.2     1  UNL1        0.0000
     12  C          5.1800    2.1050   -0.2070 C.2     1  UNL1        0.0000
@<TRIPOS>BOND
     1     5     4    1
     2     4     2    1
     3    10     8    1
     4    10    12    2
     5     8     7    2
     6    12    11    1
     7     2     3    2
     8     2     1    1
     9     7     6    1
    10     7     9    1
    11    11     9    2
    12     1     6    1
