MODEL 1
REMARK VINA RESULT:      -7.3      0.000      0.000
REMARK SMILES O=C(O)CCc1ccccc1
REMARK SMILES IDX 4 1 2 2 1 3 3 4 5 6 6 7 7 8 11 9 8 10 10 11 9 12
REMARK H PARENT 3 5
REMARK Flexibility Score: inf
ROOT
ATOM      1  C   UNL     1       8.411  -0.598  -2.217  1.00  0.00     0.127 C 
ENDROOT
BRANCH   1   2
ATOM      2  C   UNL     1       8.454  -1.891  -2.923  1.00  0.00     0.303 C 
ATOM      3  O   UNL     1       9.566  -2.465  -3.082  1.00  0.00    -0.252 OA
BRANCH   2   4
ATOM      4  O   UNL     1       7.299  -2.509  -3.423  1.00  0.00    -0.481 OA
ATOM      5  H   UNL     1       6.779  -3.127  -2.815  1.00  0.00     0.296 HD
ENDBRANCH   2   4
ENDBRANCH   1   2
BRANCH   1   6
ATOM      6  C   UNL     1       7.013  -0.006  -2.188  1.00  0.00     0.047 C 
BRANCH   6   7
ATOM      7  C   UNL     1       6.492   0.061  -0.798  1.00  0.00    -0.047 A 
ATOM      8  C   UNL     1       5.863   1.208  -0.333  1.00  0.00     0.004 A 
ATOM      9  C   UNL     1       6.609  -0.986   0.097  1.00  0.00     0.004 A 
ATOM     10  C   UNL     1       5.379   1.305   0.952  1.00  0.00     0.000 A 
ATOM     11  C   UNL     1       6.124  -0.887   1.383  1.00  0.00     0.000 A 
ATOM     12  C   UNL     1       5.502   0.254   1.838  1.00  0.00     0.000 A 
ENDBRANCH   6   7
ENDBRANCH   1   6
TORSDOF 4
ENDMDL
MODEL 2
REMARK VINA RESULT:      -7.3      0.155      1.727
REMARK SMILES O=C(O)CCc1ccccc1
REMARK SMILES IDX 4 1 2 2 1 3 3 4 5 6 6 7 7 8 11 9 8 10 10 11 9 12
REMARK H PARENT 3 5
REMARK Flexibility Score: inf
ROOT
ATOM      1  C   UNL     1       8.398  -0.734  -2.036  1.00  0.00     0.127 C 
ENDROOT
BRANCH   1   2
ATOM      2  C   UNL     1       8.403  -1.948  -2.871  1.00  0.00     0.303 C 
ATOM      3  O   UNL     1       7.303  -2.433  -3.253  1.00  0.00    -0.252 OA
BRANCH   2   4
ATOM      4  O   UNL     1       9.591  -2.584  -3.259  1.00  0.00    -0.481 OA
ATOM      5  H   UNL     1       9.984  -2.365  -4.164  1.00  0.00     0.296 HD
ENDBRANCH   2   4
ENDBRANCH   1   2
BRANCH   1   6
ATOM      6  C   UNL     1       7.070  -0.001  -2.095  1.00  0.00     0.047 C 
BRANCH   6   7
ATOM      7  C   UNL     1       6.479   0.141  -0.739  1.00  0.00    -0.047 A 
ATOM      8  C   UNL     1       6.589  -0.882   0.192  1.00  0.00     0.004 A 
ATOM      9  C   UNL     1       5.791   1.271  -0.337  1.00  0.00     0.004 A 
ATOM     10  C   UNL     1       6.044  -0.786   1.452  1.00  0.00     0.000 A 
ATOM     11  C   UNL     1       5.245   1.366   0.925  1.00  0.00     0.000 A 
ATOM     12  C   UNL     1       5.358   0.346   1.843  1.00  0.00     0.000 A 
ENDBRANCH   6   7
ENDBRANCH   1   6
TORSDOF 4
ENDMDL
MODEL 3
REMARK VINA RESULT:      -6.8      3.400      5.072
REMARK SMILES O=C(O)CCc1ccccc1
REMARK SMILES IDX 4 1 2 2 1 3 3 4 5 6 6 7 7 8 11 9 8 10 10 11 9 12
REMARK H PARENT 3 5
REMARK Flexibility Score: inf
ROOT
ATOM      1  C   UNL     1       5.008   1.774   0.739  1.00  0.00     0.127 C 
ENDROOT
BRANCH   1   2
ATOM      2  C   UNL     1       4.469   1.104   1.936  1.00  0.00     0.303 C 
ATOM      3  O   UNL     1       5.146   0.192   2.484  1.00  0.00    -0.252 OA
BRANCH   2   4
ATOM      4  O   UNL     1       3.226   1.446   2.489  1.00  0.00    -0.481 OA
ATOM      5  H   UNL     1       2.517   1.835   1.882  1.00  0.00     0.296 HD
ENDBRANCH   2   4
ENDBRANCH   1   2
BRANCH   1   6
ATOM      6  C   UNL     1       6.523   1.870   0.769  1.00  0.00     0.047 C 
BRANCH   6   7
ATOM      7  C   UNL     1       7.129   1.063  -0.323  1.00  0.00    -0.047 A 
ATOM      8  C   UNL     1       8.463   1.227  -0.666  1.00  0.00     0.004 A 
ATOM      9  C   UNL     1       6.412   0.131  -1.051  1.00  0.00     0.004 A 
ATOM     10  C   UNL     1       9.051   0.503  -1.678  1.00  0.00     0.000 A 
ATOM     11  C   UNL     1       7.002  -0.593  -2.064  1.00  0.00     0.000 A 
ATOM     12  C   UNL     1       8.327  -0.424  -2.400  1.00  0.00     0.000 A 
ENDBRANCH   6   7
ENDBRANCH   1   6
TORSDOF 4
ENDMDL
MODEL 4
REMARK VINA RESULT:      -6.6      1.896      2.931
REMARK SMILES O=C(O)CCc1ccccc1
REMARK SMILES IDX 4 1 2 2 1 3 3 4 5 6 6 7 7 8 11 9 8 10 10 11 9 12
REMARK H PARENT 3 5
REMARK Flexibility Score: inf
ROOT
ATOM      1  C   UNL     1       8.227  -1.685   1.114  1.00  0.00     0.127 C 
ENDROOT
BRANCH   1   2
ATOM      2  C   UNL     1       8.537  -2.887   0.320  1.00  0.00     0.303 C 
ATOM      3  O   UNL     1       9.198  -3.819   0.854  1.00  0.00    -0.252 OA
BRANCH   2   4
ATOM      4  O   UNL     1       8.122  -3.032  -1.011  1.00  0.00    -0.481 OA
ATOM      5  H   UNL     1       7.377  -2.440  -1.352  1.00  0.00     0.296 HD
ENDBRANCH   2   4
ENDBRANCH   1   2
BRANCH   1   6
ATOM      6  C   UNL     1       6.745  -1.565   1.419  1.00  0.00     0.047 C 
BRANCH   6   7
ATOM      7  C   UNL     1       6.190  -0.298   0.874  1.00  0.00    -0.047 A 
ATOM      8  C   UNL     1       6.444   0.080  -0.437  1.00  0.00     0.004 A 
ATOM      9  C   UNL     1       5.413   0.563   1.627  1.00  0.00     0.004 A 
ATOM     10  C   UNL     1       5.953   1.251  -0.967  1.00  0.00     0.000 A 
ATOM     11  C   UNL     1       4.922   1.736   1.094  1.00  0.00     0.000 A 
ATOM     12  C   UNL     1       5.180   2.105  -0.207  1.00  0.00     0.000 A 
ENDBRANCH   6   7
ENDBRANCH   1   6
TORSDOF 4
ENDMDL
MODEL 5
REMARK VINA RESULT:      -6.6      2.075      2.397
REMARK SMILES O=C(O)CCc1ccccc1
REMARK SMILES IDX 4 1 2 2 1 3 3 4 5 6 6 7 7 8 11 9 8 10 10 11 9 12
REMARK H PARENT 3 5
REMARK Flexibility Score: inf
ROOT
ATOM      1  C   UNL     1       8.524   0.668  -1.652  1.00  0.00     0.127 C 
ENDROOT
BRANCH   1   2
ATOM      2  C   UNL     1       9.677   0.283  -0.818  1.00  0.00     0.303 C 
ATOM      3  O   UNL     1       9.497  -0.512   0.144  1.00  0.00    -0.252 OA
BRANCH   2   4
ATOM      4  O   UNL     1      10.970   0.770  -1.059  1.00  0.00    -0.481 OA
ATOM      5  H   UNL     1      11.305   0.799  -2.012  1.00  0.00     0.296 HD
ENDBRANCH   2   4
ENDBRANCH   1   2
BRANCH   1   6
ATOM      6  C   UNL     1       7.331  -0.247  -1.441  1.00  0.00     0.047 C 
BRANCH   6   7
ATOM      7  C   UNL     1       6.437   0.281  -0.377  1.00  0.00    -0.047 A 
ATOM      8  C   UNL     1       5.798   1.503  -0.531  1.00  0.00     0.004 A 
ATOM      9  C   UNL     1       6.203  -0.395   0.807  1.00  0.00     0.004 A 
ATOM     10  C   UNL     1       4.973   2.023   0.439  1.00  0.00     0.000 A 
ATOM     11  C   UNL     1       5.376   0.128   1.778  1.00  0.00     0.000 A 
ATOM     12  C   UNL     1       4.746   1.342   1.618  1.00  0.00     0.000 A 
ENDBRANCH   6   7
ENDBRANCH   1   6
TORSDOF 4
ENDMDL
