@<TRIPOS>MOLECULE
/home/cewinharhar/GITHUB/reincatalyze/data/processed/docking_pred/2023-Apr-25-2248_maxeplen10_maxtrainstep1000_exh16_gamma099_lrac3e-4_lrcr1e-3/9545d038953ad0bd3b50a81295f717fe73892d7b_ligand_2.pdbqt
 12 12 0 0 0
SMALL
GASTEIGER

@<TRIPOS>ATOM
      1  C          5.0080    1.7740    0.7390 C.3     1  UNL1        0.1270
      2  C          4.4690    1.1040    1.9360 C.2     1  UNL1        0.3030
      3  O          5.1460    0.1920    2.4840 O.2     1  UNL1       -0.2520
      4  O          3.2260    1.4460    2.4890 O.3     1  UNL1       -0.4810
      5  H          2.5170    1.8350    1.8820 H       1  UNL1        0.2960
      6  C          6.5230    1.8700    0.7690 C.3     1  UNL1        0.0470
      7  C          7.1290    1.0630   -0.3230 C.2     1  UNL1       -0.0470
      8  C          8.4630    1.2270   -0.6660 C.2     1  UNL1        0.0040
      9  C          6.4120    0.1310   -1.0510 C.2     1  UNL1        0.0040
     10  C          9.0510    0.5030   -1.6780 C.2     1  UNL1        0.0000
     11  C          7.0020   -0.5930   -2.0640 C.2     1  UNL1        0.0000
     12  C          8.3270   -0.4240   -2.4000 C.2     1  UNL1        0.0000
@<TRIPOS>BOND
     1    12    11    2
     2    12    10    1
     3    11     9    1
     4    10     8    2
     5     9     7    2
     6     8     7    1
     7     7     6    1
     8     1     6    1
     9     1     2    1
    10     5     4    1
    11     2     3    2
    12     2     4    1
