@<TRIPOS>MOLECULE
/home/cewinharhar/GITHUB/reincatalyze/data/processed/docking_pred/2023-Apr-25-2248_maxeplen10_maxtrainstep1000_exh16_gamma099_lrac3e-4_lrcr1e-3/9545d038953ad0bd3b50a81295f717fe73892d7b_ligand_2.pdbqt
 12 12 0 0 0
SMALL
GASTEIGER

@<TRIPOS>ATOM
      1  C          8.5240    0.6680   -1.6520 C.3     1  UNL1        0.1270
      2  C          9.6770    0.2830   -0.8180 C.2     1  UNL1        0.3030
      3  O          9.4970   -0.5120    0.1440 O.2     1  UNL1       -0.2520
      4  O         10.9700    0.7700   -1.0590 O.3     1  UNL1       -0.4810
      5  H         11.3050    0.7990   -2.0120 H       1  UNL1        0.2960
      6  C          7.3310   -0.2470   -1.4410 C.3     1  UNL1        0.0470
      7  C          6.4370    0.2810   -0.3770 C.2     1  UNL1       -0.0470
      8  C          5.7980    1.5030   -0.5310 C.2     1  UNL1        0.0040
      9  C          6.2030   -0.3950    0.8070 C.2     1  UNL1        0.0040
     10  C          4.9730    2.0230    0.4390 C.2     1  UNL1        0.0000
     11  C          5.3760    0.1280    1.7780 C.2     1  UNL1        0.0000
     12  C          4.7460    1.3420    1.6180 C.2     1  UNL1        0.0000
@<TRIPOS>BOND
     1     5     4    1
     2     1     6    1
     3     1     2    1
     4     6     7    1
     5     4     2    1
     6     2     3    2
     7     8     7    2
     8     8    10    1
     9     7     9    1
    10    10    12    2
    11     9    11    2
    12    12    11    1
