@<TRIPOS>MOLECULE
/home/cewinharhar/GITHUB/reincatalyze/data/processed/docking_pred/2023-Apr-25-2248_maxeplen10_maxtrainstep1000_exh16_gamma099_lrac3e-4_lrcr1e-3/955e59fc22a1e87e2ab10a68f3a5c98643a236a4_ligand_2.pdbqt
 12 12 0 0 0
SMALL
GASTEIGER

@<TRIPOS>ATOM
      1  C          8.3970   -0.5990   -2.1890 C.3     1  UNL1        0.1270
      2  C          8.4080   -1.8890   -2.9010 C.2     1  UNL1        0.3030
      3  O          7.3100   -2.4170   -3.2280 O.2     1  UNL1       -0.2520
      4  O          9.5990   -2.5520   -3.2300 O.3     1  UNL1       -0.4810
      5  H          9.5510   -3.3610   -3.8350 H       1  UNL1        0.2960
      6  C          7.0120    0.0230   -2.1490 C.3     1  UNL1        0.0470
      7  C          6.4880    0.0670   -0.7590 C.2     1  UNL1       -0.0470
      8  C          5.8430    1.1980   -0.2810 C.2     1  UNL1        0.0040
      9  C          6.6180   -0.9900    0.1230 C.2     1  UNL1        0.0040
     10  C          5.3560    1.2740    1.0040 C.2     1  UNL1        0.0000
     11  C          6.1290   -0.9130    1.4100 C.2     1  UNL1        0.0000
     12  C          5.4920    0.2130    1.8770 C.2     1  UNL1        0.0000
@<TRIPOS>BOND
     1     5     4    1
     2     4     2    1
     3     3     2    2
     4     2     1    1
     5     1     6    1
     6     6     7    1
     7     7     8    2
     8     7     9    1
     9     8    10    1
    10     9    11    2
    11    10    12    2
    12    11    12    1
