@<TRIPOS>MOLECULE
/home/cewinharhar/GITHUB/reincatalyze/data/processed/docking_pred/2023-Apr-25-2248_maxeplen10_maxtrainstep1000_exh16_gamma099_lrac3e-4_lrcr1e-3/955e59fc22a1e87e2ab10a68f3a5c98643a236a4_ligand_2.pdbqt
 12 12 0 0 0
SMALL
GASTEIGER

@<TRIPOS>ATOM
      1  C          8.4180   -0.6670   -2.0990 C.3     1  UNL1        0.1270
      2  C          8.4400   -1.9140   -2.8840 C.2     1  UNL1        0.3030
      3  O          9.5420   -2.4940   -3.0830 O.2     1  UNL1       -0.2520
      4  O          7.2740   -2.4820   -3.4180 O.3     1  UNL1       -0.4810
      5  H          6.8940   -3.3100   -2.9790 H       1  UNL1        0.2960
      6  C          7.0510   -0.0070   -2.1090 C.3     1  UNL1        0.0470
      7  C          6.4980    0.0920   -0.7330 C.2     1  UNL1       -0.0470
      8  C          6.6180   -0.9660    0.1560 C.2     1  UNL1        0.0040
      9  C          5.8360    1.2160   -0.2720 C.2     1  UNL1        0.0040
     10  C          6.1070   -0.9090    1.4330 C.2     1  UNL1        0.0000
     11  C          5.3250    1.2710    1.0070 C.2     1  UNL1        0.0000
     12  C          5.4470    0.2160    1.8830 C.2     1  UNL1        0.0000
@<TRIPOS>BOND
     1     4     5    1
     2     4     2    1
     3     3     2    2
     4     2     1    1
     5     6     1    1
     6     6     7    1
     7     7     9    2
     8     7     8    1
     9     9    11    1
    10     8    10    2
    11    11    12    2
    12    10    12    1
