@<TRIPOS>MOLECULE
/home/cewinharhar/GITHUB/reincatalyze/data/processed/docking_pred/2023-Apr-25-2248_maxeplen10_maxtrainstep1000_exh16_gamma099_lrac3e-4_lrcr1e-3/955e59fc22a1e87e2ab10a68f3a5c98643a236a4_ligand_2.pdbqt
 12 12 0 0 0
SMALL
GASTEIGER

@<TRIPOS>ATOM
      1  C          8.3100    0.4210   -1.9130 C.3     1  UNL1        0.1270
      2  C          9.4680    0.2420   -1.0190 C.2     1  UNL1        0.3030
      3  O          9.3730   -0.5570   -0.0470 O.2     1  UNL1       -0.2520
      4  O         10.6750    0.9290   -1.2110 O.3     1  UNL1       -0.4810
      5  H         10.7270    1.9010   -0.9390 H       1  UNL1        0.2960
      6  C          7.1360   -0.4550   -1.5140 C.3     1  UNL1        0.0470
      7  C          6.3360    0.1840   -0.4370 C.2     1  UNL1       -0.0470
      8  C          5.7700    1.4370   -0.6250 C.2     1  UNL1        0.0040
      9  C          6.1220   -0.4130    0.7910 C.2     1  UNL1        0.0040
     10  C          5.0320    2.0600    0.3560 C.2     1  UNL1        0.0000
     11  C          5.3830    0.2120    1.7730 C.2     1  UNL1        0.0000
     12  C          4.8260    1.4550    1.5790 C.2     1  UNL1        0.0000
@<TRIPOS>BOND
     1     1     6    1
     2     1     2    1
     3     6     7    1
     4     4     2    1
     5     4     5    1
     6     2     3    2
     7     8     7    2
     8     8    10    1
     9     7     9    1
    10    10    12    2
    11     9    11    2
    12    12    11    1
