@<TRIPOS>MOLECULE
/home/cewinharhar/GITHUB/reincatalyze/data/processed/docking_pred/2023-Apr-25-2248_maxeplen10_maxtrainstep1000_exh16_gamma099_lrac3e-4_lrcr1e-3/955e59fc22a1e87e2ab10a68f3a5c98643a236a4_ligand_2.pdbqt
 12 12 0 0 0
SMALL
GASTEIGER

@<TRIPOS>ATOM
      1  C          7.3600   -1.3560   -2.1290 C.3     1  UNL1        0.1270
      2  C          8.7890   -1.4350   -2.4800 C.2     1  UNL1        0.3030
      3  O          9.5720   -0.5380   -2.0660 O.2     1  UNL1       -0.2520
      4  O          9.3100   -2.4770   -3.2600 O.3     1  UNL1       -0.4810
      5  H          8.7350   -3.2920   -3.4250 H       1  UNL1        0.2960
      6  C          6.8800    0.0790   -1.9970 C.3     1  UNL1        0.0470
      7  C          6.2830    0.3200   -0.6580 C.2     1  UNL1       -0.0470
      8  C          6.4100   -0.6220    0.3540 C.2     1  UNL1        0.0040
      9  C          5.5740    1.4660   -0.3500 C.2     1  UNL1        0.0040
     10  C          5.8610   -0.4330    1.6010 C.2     1  UNL1        0.0000
     11  C          5.0240    1.6540    0.9000 C.2     1  UNL1        0.0000
     12  C          5.1530    0.7150    1.8980 C.2     1  UNL1        0.0000
@<TRIPOS>BOND
     1     5     4    1
     2     4     2    1
     3     2     1    1
     4     2     3    2
     5     1     6    1
     6     6     7    1
     7     7     9    2
     8     7     8    1
     9     9    11    1
    10     8    10    2
    11    11    12    2
    12    10    12    1
