@<TRIPOS>MOLECULE
/home/cewinharhar/GITHUB/reincatalyze/data/processed/docking_pred/2023-Apr-25-2248_maxeplen10_maxtrainstep1000_exh16_gamma099_lrac3e-4_lrcr1e-3/955e59fc22a1e87e2ab10a68f3a5c98643a236a4_ligand_2.pdbqt
 12 12 0 0 0
SMALL
GASTEIGER

@<TRIPOS>ATOM
      1  C          5.0060    1.8360    0.7190 C.3     1  UNL1        0.1270
      2  C          4.4830    1.1480    1.9120 C.2     1  UNL1        0.3030
      3  O          5.1800    0.2470    2.4540 O.2     1  UNL1       -0.2520
      4  O          3.2350    1.4610    2.4690 O.3     1  UNL1       -0.4810
      5  H          2.9780    2.4340    2.5640 H       1  UNL1        0.2960
      6  C          6.5210    1.9400    0.7350 C.3     1  UNL1        0.0470
      7  C          7.1230    1.1150   -0.3450 C.2     1  UNL1       -0.0470
      8  C          8.4730    1.2210   -0.6480 C.2     1  UNL1        0.0040
      9  C          6.3880    0.2190   -1.1000 C.2     1  UNL1        0.0040
     10  C          9.0580    0.4780   -1.6480 C.2     1  UNL1        0.0000
     11  C          6.9750   -0.5240   -2.1010 C.2     1  UNL1        0.0000
     12  C          8.3150   -0.4120   -2.3970 C.2     1  UNL1        0.0000
@<TRIPOS>BOND
     1    12    11    2
     2    12    10    1
     3    11     9    1
     4    10     8    2
     5     9     7    2
     6     8     7    1
     7     7     6    1
     8     1     6    1
     9     1     2    1
    10     2     3    2
    11     2     4    1
    12     4     5    1
