MODEL 1
REMARK VINA RESULT:      -7.3      0.000      0.000
REMARK SMILES O=C(O)CCc1ccccc1
REMARK SMILES IDX 4 1 2 2 1 3 3 4 5 6 6 7 7 8 11 9 8 10 10 11 9 12
REMARK H PARENT 3 5
REMARK Flexibility Score: inf
ROOT
ATOM      1  C   UNL     1       8.418  -0.667  -2.099  1.00  0.00     0.127 C 
ENDROOT
BRANCH   1   2
ATOM      2  C   UNL     1       8.440  -1.914  -2.884  1.00  0.00     0.303 C 
ATOM      3  O   UNL     1       9.542  -2.494  -3.083  1.00  0.00    -0.252 OA
BRANCH   2   4
ATOM      4  O   UNL     1       7.274  -2.482  -3.418  1.00  0.00    -0.481 OA
ATOM      5  H   UNL     1       6.894  -3.310  -2.979  1.00  0.00     0.296 HD
ENDBRANCH   2   4
ENDBRANCH   1   2
BRANCH   1   6
ATOM      6  C   UNL     1       7.051  -0.007  -2.109  1.00  0.00     0.047 C 
BRANCH   6   7
ATOM      7  C   UNL     1       6.498   0.092  -0.733  1.00  0.00    -0.047 A 
ATOM      8  C   UNL     1       6.618  -0.966   0.156  1.00  0.00     0.004 A 
ATOM      9  C   UNL     1       5.836   1.216  -0.272  1.00  0.00     0.004 A 
ATOM     10  C   UNL     1       6.107  -0.909   1.433  1.00  0.00     0.000 A 
ATOM     11  C   UNL     1       5.325   1.271   1.007  1.00  0.00     0.000 A 
ATOM     12  C   UNL     1       5.447   0.216   1.883  1.00  0.00     0.000 A 
ENDBRANCH   6   7
ENDBRANCH   1   6
TORSDOF 4
ENDMDL
MODEL 2
REMARK VINA RESULT:      -7.2      0.094      1.724
REMARK SMILES O=C(O)CCc1ccccc1
REMARK SMILES IDX 4 1 2 2 1 3 3 4 5 6 6 7 7 8 11 9 8 10 10 11 9 12
REMARK H PARENT 3 5
REMARK Flexibility Score: inf
ROOT
ATOM      1  C   UNL     1       8.397  -0.599  -2.189  1.00  0.00     0.127 C 
ENDROOT
BRANCH   1   2
ATOM      2  C   UNL     1       8.408  -1.889  -2.901  1.00  0.00     0.303 C 
ATOM      3  O   UNL     1       7.310  -2.417  -3.228  1.00  0.00    -0.252 OA
BRANCH   2   4
ATOM      4  O   UNL     1       9.599  -2.552  -3.230  1.00  0.00    -0.481 OA
ATOM      5  H   UNL     1       9.551  -3.361  -3.835  1.00  0.00     0.296 HD
ENDBRANCH   2   4
ENDBRANCH   1   2
BRANCH   1   6
ATOM      6  C   UNL     1       7.012   0.023  -2.149  1.00  0.00     0.047 C 
BRANCH   6   7
ATOM      7  C   UNL     1       6.488   0.067  -0.759  1.00  0.00    -0.047 A 
ATOM      8  C   UNL     1       5.843   1.198  -0.281  1.00  0.00     0.004 A 
ATOM      9  C   UNL     1       6.618  -0.990   0.123  1.00  0.00     0.004 A 
ATOM     10  C   UNL     1       5.356   1.274   1.004  1.00  0.00     0.000 A 
ATOM     11  C   UNL     1       6.129  -0.913   1.410  1.00  0.00     0.000 A 
ATOM     12  C   UNL     1       5.492   0.213   1.877  1.00  0.00     0.000 A 
ENDBRANCH   6   7
ENDBRANCH   1   6
TORSDOF 4
ENDMDL
MODEL 3
REMARK VINA RESULT:      -7.0      0.876      1.067
REMARK SMILES O=C(O)CCc1ccccc1
REMARK SMILES IDX 4 1 2 2 1 3 3 4 5 6 6 7 7 8 11 9 8 10 10 11 9 12
REMARK H PARENT 3 5
REMARK Flexibility Score: inf
ROOT
ATOM      1  C   UNL     1       7.360  -1.356  -2.129  1.00  0.00     0.127 C 
ENDROOT
BRANCH   1   2
ATOM      2  C   UNL     1       8.789  -1.435  -2.480  1.00  0.00     0.303 C 
ATOM      3  O   UNL     1       9.572  -0.538  -2.066  1.00  0.00    -0.252 OA
BRANCH   2   4
ATOM      4  O   UNL     1       9.310  -2.477  -3.260  1.00  0.00    -0.481 OA
ATOM      5  H   UNL     1       8.735  -3.292  -3.425  1.00  0.00     0.296 HD
ENDBRANCH   2   4
ENDBRANCH   1   2
BRANCH   1   6
ATOM      6  C   UNL     1       6.880   0.079  -1.997  1.00  0.00     0.047 C 
BRANCH   6   7
ATOM      7  C   UNL     1       6.283   0.320  -0.658  1.00  0.00    -0.047 A 
ATOM      8  C   UNL     1       6.410  -0.622   0.354  1.00  0.00     0.004 A 
ATOM      9  C   UNL     1       5.574   1.466  -0.350  1.00  0.00     0.004 A 
ATOM     10  C   UNL     1       5.861  -0.433   1.601  1.00  0.00     0.000 A 
ATOM     11  C   UNL     1       5.024   1.654   0.900  1.00  0.00     0.000 A 
ATOM     12  C   UNL     1       5.153   0.715   1.898  1.00  0.00     0.000 A 
ENDBRANCH   6   7
ENDBRANCH   1   6
TORSDOF 4
ENDMDL
MODEL 4
REMARK VINA RESULT:      -6.8      3.386      5.089
REMARK SMILES O=C(O)CCc1ccccc1
REMARK SMILES IDX 4 1 2 2 1 3 3 4 5 6 6 7 7 8 11 9 8 10 10 11 9 12
REMARK H PARENT 3 5
REMARK Flexibility Score: inf
ROOT
ATOM      1  C   UNL     1       5.006   1.836   0.719  1.00  0.00     0.127 C 
ENDROOT
BRANCH   1   2
ATOM      2  C   UNL     1       4.483   1.148   1.912  1.00  0.00     0.303 C 
ATOM      3  O   UNL     1       5.180   0.247   2.454  1.00  0.00    -0.252 OA
BRANCH   2   4
ATOM      4  O   UNL     1       3.235   1.461   2.469  1.00  0.00    -0.481 OA
ATOM      5  H   UNL     1       2.978   2.434   2.564  1.00  0.00     0.296 HD
ENDBRANCH   2   4
ENDBRANCH   1   2
BRANCH   1   6
ATOM      6  C   UNL     1       6.521   1.940   0.735  1.00  0.00     0.047 C 
BRANCH   6   7
ATOM      7  C   UNL     1       7.123   1.115  -0.345  1.00  0.00    -0.047 A 
ATOM      8  C   UNL     1       8.473   1.221  -0.648  1.00  0.00     0.004 A 
ATOM      9  C   UNL     1       6.388   0.219  -1.100  1.00  0.00     0.004 A 
ATOM     10  C   UNL     1       9.058   0.478  -1.648  1.00  0.00     0.000 A 
ATOM     11  C   UNL     1       6.975  -0.524  -2.101  1.00  0.00     0.000 A 
ATOM     12  C   UNL     1       8.315  -0.412  -2.397  1.00  0.00     0.000 A 
ENDBRANCH   6   7
ENDBRANCH   1   6
TORSDOF 4
ENDMDL
MODEL 5
REMARK VINA RESULT:      -6.5      1.966      2.663
REMARK SMILES O=C(O)CCc1ccccc1
REMARK SMILES IDX 4 1 2 2 1 3 3 4 5 6 6 7 7 8 11 9 8 10 10 11 9 12
REMARK H PARENT 3 5
REMARK Flexibility Score: inf
ROOT
ATOM      1  C   UNL     1       8.310   0.421  -1.913  1.00  0.00     0.127 C 
ENDROOT
BRANCH   1   2
ATOM      2  C   UNL     1       9.468   0.242  -1.019  1.00  0.00     0.303 C 
ATOM      3  O   UNL     1       9.373  -0.557  -0.047  1.00  0.00    -0.252 OA
BRANCH   2   4
ATOM      4  O   UNL     1      10.675   0.929  -1.211  1.00  0.00    -0.481 OA
ATOM      5  H   UNL     1      10.727   1.901  -0.939  1.00  0.00     0.296 HD
ENDBRANCH   2   4
ENDBRANCH   1   2
BRANCH   1   6
ATOM      6  C   UNL     1       7.136  -0.455  -1.514  1.00  0.00     0.047 C 
BRANCH   6   7
ATOM      7  C   UNL     1       6.336   0.184  -0.437  1.00  0.00    -0.047 A 
ATOM      8  C   UNL     1       5.770   1.437  -0.625  1.00  0.00     0.004 A 
ATOM      9  C   UNL     1       6.122  -0.413   0.791  1.00  0.00     0.004 A 
ATOM     10  C   UNL     1       5.032   2.060   0.356  1.00  0.00     0.000 A 
ATOM     11  C   UNL     1       5.383   0.212   1.773  1.00  0.00     0.000 A 
ATOM     12  C   UNL     1       4.826   1.455   1.579  1.00  0.00     0.000 A 
ENDBRANCH   6   7
ENDBRANCH   1   6
TORSDOF 4
ENDMDL
