@<TRIPOS>MOLECULE
/home/cewinharhar/GITHUB/reincatalyze/data/processed/docking_pred/2023-Apr-25-2248_maxeplen10_maxtrainstep1000_exh16_gamma099_lrac3e-4_lrcr1e-3/96aa1335557473cc7235c71144735280de1f686e_ligand_2.pdbqt
 12 12 0 0 0
SMALL
GASTEIGER

@<TRIPOS>ATOM
      1  C          8.5510   -0.5810   -2.3510 C.3     1  UNL1        0.1270
      2  C          8.4820   -1.9260   -2.9490 C.2     1  UNL1        0.3030
      3  O          7.3530   -2.4300   -3.1950 O.2     1  UNL1       -0.2520
      4  O          9.6320   -2.6680   -3.2560 O.3     1  UNL1       -0.4810
      5  H          9.7160   -3.0690   -4.1800 H       1  UNL1        0.2960
      6  C          7.1860    0.0770   -2.2610 C.3     1  UNL1        0.0470
      7  C          6.8010    0.3120   -0.8450 C.2     1  UNL1       -0.0470
      8  C          7.4740   -0.3260    0.1870 C.2     1  UNL1        0.0040
      9  C          5.7650    1.1530   -0.4810 C.2     1  UNL1        0.0040
     10  C          7.1340   -0.1370    1.5080 C.2     1  UNL1        0.0000
     11  C          5.4260    1.3410    0.8420 C.2     1  UNL1        0.0000
     12  C          6.0980    0.7040    1.8600 C.2     1  UNL1        0.0000
@<TRIPOS>BOND
     1     5     4    1
     2     4     2    1
     3     3     2    2
     4     2     1    1
     5     1     6    1
     6     6     7    1
     7     7     9    2
     8     7     8    1
     9     9    11    1
    10     8    10    2
    11    11    12    2
    12    10    12    1
