@<TRIPOS>MOLECULE
/home/cewinharhar/GITHUB/reincatalyze/data/processed/docking_pred/2023-Apr-25-2248_maxeplen10_maxtrainstep1000_exh16_gamma099_lrac3e-4_lrcr1e-3/96aa1335557473cc7235c71144735280de1f686e_ligand_2.pdbqt
 12 12 0 0 0
SMALL
GASTEIGER

@<TRIPOS>ATOM
      1  C          8.2230   -0.3740   -2.5910 C.3     1  UNL1        0.1270
      2  C          8.3410   -1.7880   -2.9920 C.2     1  UNL1        0.3030
      3  O          7.2950   -2.4360   -3.2660 O.2     1  UNL1       -0.2520
      4  O          9.5800   -2.4390   -3.0800 O.3     1  UNL1       -0.4810
      5  H         10.0840   -2.4040   -3.9560 H       1  UNL1        0.2960
      6  C          8.6300   -0.1510   -1.1460 C.3     1  UNL1        0.0470
      7  C          7.4760    0.3190   -0.3350 C.2     1  UNL1       -0.0470
      8  C          6.4720    1.0840   -0.9100 C.2     1  UNL1        0.0040
      9  C          7.3440    0.0360    1.0130 C.2     1  UNL1        0.0040
     10  C          5.3970    1.5440   -0.1840 C.2     1  UNL1        0.0000
     11  C          6.2670    0.4970    1.7380 C.2     1  UNL1        0.0000
     12  C          5.2750    1.2570    1.1610 C.2     1  UNL1        0.0000
@<TRIPOS>BOND
     1     5     4    1
     2     3     2    2
     3     4     2    1
     4     2     1    1
     5     1     6    1
     6     6     7    1
     7     8     7    2
     8     8    10    1
     9     7     9    1
    10    10    12    2
    11     9    11    2
    12    12    11    1
