@<TRIPOS>MOLECULE
/home/cewinharhar/GITHUB/reincatalyze/data/processed/docking_pred/2023-Apr-25-2248_maxeplen10_maxtrainstep1000_exh16_gamma099_lrac3e-4_lrcr1e-3/96aa1335557473cc7235c71144735280de1f686e_ligand_2.pdbqt
 12 12 0 0 0
SMALL
GASTEIGER

@<TRIPOS>ATOM
      1  C          5.0000    1.8090    0.6820 C.3     1  UNL1        0.1270
      2  C          4.5690    1.1190    1.9120 C.2     1  UNL1        0.3030
      3  O          3.4350    1.3830    2.3960 O.2     1  UNL1       -0.2520
      4  O          5.3770    0.1760    2.5630 O.3     1  UNL1       -0.4810
      5  H          6.3430    0.4110    2.7440 H       1  UNL1        0.2960
      6  C          6.5010    2.0340    0.6470 C.3     1  UNL1        0.0470
      7  C          7.1440    1.1750   -0.3810 C.2     1  UNL1       -0.0470
      8  C          6.3960    0.2580   -1.1060 C.2     1  UNL1        0.0040
      9  C          8.4970    1.2300   -0.6630 C.2     1  UNL1        0.0040
     10  C          6.9640   -0.5590   -2.0570 C.2     1  UNL1        0.0000
     11  C          9.0640    0.4110   -1.6150 C.2     1  UNL1        0.0000
     12  C          8.3160   -0.4970   -2.3300 C.2     1  UNL1        0.0000
@<TRIPOS>BOND
     1    12    10    2
     2    12    11    1
     3    10     8    1
     4    11     9    2
     5     8     7    2
     6     9     7    1
     7     7     6    1
     8     6     1    1
     9     1     2    1
    10     2     3    2
    11     2     4    1
    12     4     5    1
