@<TRIPOS>MOLECULE
/home/cewinharhar/GITHUB/reincatalyze/data/processed/docking_pred/2023-Apr-25-2248_maxeplen10_maxtrainstep1000_exh16_gamma099_lrac3e-4_lrcr1e-3/96aa1335557473cc7235c71144735280de1f686e_ligand_2.pdbqt
 12 12 0 0 0
SMALL
GASTEIGER

@<TRIPOS>ATOM
      1  C          5.0210    1.8170    0.7020 C.3     1  UNL1        0.1270
      2  C          4.5810    1.1090    1.9170 C.2     1  UNL1        0.3030
      3  O          3.4430    1.3640    2.3960 O.2     1  UNL1       -0.2520
      4  O          5.3860    0.1580    2.5610 O.3     1  UNL1       -0.4810
      5  H          6.2090    0.4750    3.0540 H       1  UNL1        0.2960
      6  C          6.5280    1.9970    0.6560 C.3     1  UNL1        0.0470
      7  C          7.1370    1.1260   -0.3820 C.2     1  UNL1       -0.0470
      8  C          8.4910    1.2120   -0.6730 C.2     1  UNL1        0.0040
      9  C          6.4060    0.2060   -1.1110 C.2     1  UNL1        0.0040
     10  C          9.0830    0.4270   -1.6350 C.2     1  UNL1        0.0000
     11  C          7.0000   -0.5800   -2.0750 C.2     1  UNL1        0.0000
     12  C          8.3440   -0.4870   -2.3580 C.2     1  UNL1        0.0000
@<TRIPOS>BOND
     1    12    11    2
     2    12    10    1
     3    11     9    1
     4    10     8    2
     5     9     7    2
     6     8     7    1
     7     7     6    1
     8     6     1    1
     9     1     2    1
    10     2     3    2
    11     2     4    1
    12     4     5    1
