@<TRIPOS>MOLECULE
/home/cewinharhar/GITHUB/reincatalyze/data/processed/docking_pred/2023-Apr-25-2248_maxeplen10_maxtrainstep1000_exh16_gamma099_lrac3e-4_lrcr1e-3/96aa1335557473cc7235c71144735280de1f686e_ligand_2.pdbqt
 12 12 0 0 0
SMALL
GASTEIGER

@<TRIPOS>ATOM
      1  C          8.4950   -0.5710   -2.3660 C.3     1  UNL1        0.1270
      2  C          8.4970   -1.9100   -2.9800 C.2     1  UNL1        0.3030
      3  O          9.5890   -2.5300   -3.0930 O.2     1  UNL1       -0.2520
      4  O          7.3230   -2.5220   -3.4430 O.3     1  UNL1       -0.4810
      5  H          6.8740   -3.2130   -2.8570 H       1  UNL1        0.2960
      6  C          7.0920   -0.0080   -2.2200 C.3     1  UNL1        0.0470
      7  C          6.7530    0.2140   -0.7900 C.2     1  UNL1       -0.0470
      8  C          5.7600    1.1130   -0.4290 C.2     1  UNL1        0.0040
      9  C          7.4000   -0.4410    0.2430 C.2     1  UNL1        0.0040
     10  C          5.4310    1.3490    0.8860 C.2     1  UNL1        0.0000
     11  C          7.0690   -0.2040    1.5590 C.2     1  UNL1        0.0000
     12  C          6.0830    0.6910    1.9090 C.2     1  UNL1        0.0000
@<TRIPOS>BOND
     1     4     2    1
     2     4     5    1
     3     3     2    2
     4     2     1    1
     5     1     6    1
     6     6     7    1
     7     7     8    2
     8     7     9    1
     9     8    10    1
    10     9    11    2
    11    10    12    2
    12    11    12    1
