MODEL 1
REMARK VINA RESULT:      -7.2      0.000      0.000
REMARK SMILES O=C(O)CCc1ccccc1
REMARK SMILES IDX 4 1 2 2 1 3 3 4 5 6 6 7 7 8 11 9 8 10 10 11 9 12
REMARK H PARENT 3 5
REMARK Flexibility Score: inf
ROOT
ATOM      1  C   UNL     1       8.495  -0.571  -2.366  1.00  0.00     0.127 C 
ENDROOT
BRANCH   1   2
ATOM      2  C   UNL     1       8.497  -1.910  -2.980  1.00  0.00     0.303 C 
ATOM      3  O   UNL     1       9.589  -2.530  -3.093  1.00  0.00    -0.252 OA
BRANCH   2   4
ATOM      4  O   UNL     1       7.323  -2.522  -3.443  1.00  0.00    -0.481 OA
ATOM      5  H   UNL     1       6.874  -3.213  -2.857  1.00  0.00     0.296 HD
ENDBRANCH   2   4
ENDBRANCH   1   2
BRANCH   1   6
ATOM      6  C   UNL     1       7.092  -0.008  -2.220  1.00  0.00     0.047 C 
BRANCH   6   7
ATOM      7  C   UNL     1       6.753   0.214  -0.790  1.00  0.00    -0.047 A 
ATOM      8  C   UNL     1       5.760   1.113  -0.429  1.00  0.00     0.004 A 
ATOM      9  C   UNL     1       7.400  -0.441   0.243  1.00  0.00     0.004 A 
ATOM     10  C   UNL     1       5.431   1.349   0.886  1.00  0.00     0.000 A 
ATOM     11  C   UNL     1       7.069  -0.204   1.559  1.00  0.00     0.000 A 
ATOM     12  C   UNL     1       6.083   0.691   1.909  1.00  0.00     0.000 A 
ENDBRANCH   6   7
ENDBRANCH   1   6
TORSDOF 4
ENDMDL
MODEL 2
REMARK VINA RESULT:      -7.1      0.134      1.723
REMARK SMILES O=C(O)CCc1ccccc1
REMARK SMILES IDX 4 1 2 2 1 3 3 4 5 6 6 7 7 8 11 9 8 10 10 11 9 12
REMARK H PARENT 3 5
REMARK Flexibility Score: inf
ROOT
ATOM      1  C   UNL     1       8.551  -0.581  -2.351  1.00  0.00     0.127 C 
ENDROOT
BRANCH   1   2
ATOM      2  C   UNL     1       8.482  -1.926  -2.949  1.00  0.00     0.303 C 
ATOM      3  O   UNL     1       7.353  -2.430  -3.195  1.00  0.00    -0.252 OA
BRANCH   2   4
ATOM      4  O   UNL     1       9.632  -2.668  -3.256  1.00  0.00    -0.481 OA
ATOM      5  H   UNL     1       9.716  -3.069  -4.180  1.00  0.00     0.296 HD
ENDBRANCH   2   4
ENDBRANCH   1   2
BRANCH   1   6
ATOM      6  C   UNL     1       7.186   0.077  -2.261  1.00  0.00     0.047 C 
BRANCH   6   7
ATOM      7  C   UNL     1       6.801   0.312  -0.845  1.00  0.00    -0.047 A 
ATOM      8  C   UNL     1       7.474  -0.326   0.187  1.00  0.00     0.004 A 
ATOM      9  C   UNL     1       5.765   1.153  -0.481  1.00  0.00     0.004 A 
ATOM     10  C   UNL     1       7.134  -0.137   1.508  1.00  0.00     0.000 A 
ATOM     11  C   UNL     1       5.426   1.341   0.842  1.00  0.00     0.000 A 
ATOM     12  C   UNL     1       6.098   0.704   1.860  1.00  0.00     0.000 A 
ENDBRANCH   6   7
ENDBRANCH   1   6
TORSDOF 4
ENDMDL
MODEL 3
REMARK VINA RESULT:      -6.9      3.342      5.124
REMARK SMILES O=C(O)CCc1ccccc1
REMARK SMILES IDX 4 1 2 2 1 3 3 4 5 6 6 7 7 8 11 9 8 10 10 11 9 12
REMARK H PARENT 3 5
REMARK Flexibility Score: inf
ROOT
ATOM      1  C   UNL     1       5.021   1.817   0.702  1.00  0.00     0.127 C 
ENDROOT
BRANCH   1   2
ATOM      2  C   UNL     1       4.581   1.109   1.917  1.00  0.00     0.303 C 
ATOM      3  O   UNL     1       3.443   1.364   2.396  1.00  0.00    -0.252 OA
BRANCH   2   4
ATOM      4  O   UNL     1       5.386   0.158   2.561  1.00  0.00    -0.481 OA
ATOM      5  H   UNL     1       6.209   0.475   3.054  1.00  0.00     0.296 HD
ENDBRANCH   2   4
ENDBRANCH   1   2
BRANCH   1   6
ATOM      6  C   UNL     1       6.528   1.997   0.656  1.00  0.00     0.047 C 
BRANCH   6   7
ATOM      7  C   UNL     1       7.137   1.126  -0.382  1.00  0.00    -0.047 A 
ATOM      8  C   UNL     1       8.491   1.212  -0.673  1.00  0.00     0.004 A 
ATOM      9  C   UNL     1       6.406   0.206  -1.111  1.00  0.00     0.004 A 
ATOM     10  C   UNL     1       9.083   0.427  -1.635  1.00  0.00     0.000 A 
ATOM     11  C   UNL     1       7.000  -0.580  -2.075  1.00  0.00     0.000 A 
ATOM     12  C   UNL     1       8.344  -0.487  -2.358  1.00  0.00     0.000 A 
ENDBRANCH   6   7
ENDBRANCH   1   6
TORSDOF 4
ENDMDL
MODEL 4
REMARK VINA RESULT:      -6.9      3.349      5.045
REMARK SMILES O=C(O)CCc1ccccc1
REMARK SMILES IDX 4 1 2 2 1 3 3 4 5 6 6 7 7 8 11 9 8 10 10 11 9 12
REMARK H PARENT 3 5
REMARK Flexibility Score: inf
ROOT
ATOM      1  C   UNL     1       5.000   1.809   0.682  1.00  0.00     0.127 C 
ENDROOT
BRANCH   1   2
ATOM      2  C   UNL     1       4.569   1.119   1.912  1.00  0.00     0.303 C 
ATOM      3  O   UNL     1       3.435   1.383   2.396  1.00  0.00    -0.252 OA
BRANCH   2   4
ATOM      4  O   UNL     1       5.377   0.176   2.563  1.00  0.00    -0.481 OA
ATOM      5  H   UNL     1       6.343   0.411   2.744  1.00  0.00     0.296 HD
ENDBRANCH   2   4
ENDBRANCH   1   2
BRANCH   1   6
ATOM      6  C   UNL     1       6.501   2.034   0.647  1.00  0.00     0.047 C 
BRANCH   6   7
ATOM      7  C   UNL     1       7.144   1.175  -0.381  1.00  0.00    -0.047 A 
ATOM      8  C   UNL     1       6.396   0.258  -1.106  1.00  0.00     0.004 A 
ATOM      9  C   UNL     1       8.497   1.230  -0.663  1.00  0.00     0.004 A 
ATOM     10  C   UNL     1       6.964  -0.559  -2.057  1.00  0.00     0.000 A 
ATOM     11  C   UNL     1       9.064   0.411  -1.615  1.00  0.00     0.000 A 
ATOM     12  C   UNL     1       8.316  -0.497  -2.330  1.00  0.00     0.000 A 
ENDBRANCH   6   7
ENDBRANCH   1   6
TORSDOF 4
ENDMDL
MODEL 5
REMARK VINA RESULT:      -6.8      0.635      1.364
REMARK SMILES O=C(O)CCc1ccccc1
REMARK SMILES IDX 4 1 2 2 1 3 3 4 5 6 6 7 7 8 11 9 8 10 10 11 9 12
REMARK H PARENT 3 5
REMARK Flexibility Score: inf
ROOT
ATOM      1  C   UNL     1       8.223  -0.374  -2.591  1.00  0.00     0.127 C 
ENDROOT
BRANCH   1   2
ATOM      2  C   UNL     1       8.341  -1.788  -2.992  1.00  0.00     0.303 C 
ATOM      3  O   UNL     1       7.295  -2.436  -3.266  1.00  0.00    -0.252 OA
BRANCH   2   4
ATOM      4  O   UNL     1       9.580  -2.439  -3.080  1.00  0.00    -0.481 OA
ATOM      5  H   UNL     1      10.084  -2.404  -3.956  1.00  0.00     0.296 HD
ENDBRANCH   2   4
ENDBRANCH   1   2
BRANCH   1   6
ATOM      6  C   UNL     1       8.630  -0.151  -1.146  1.00  0.00     0.047 C 
BRANCH   6   7
ATOM      7  C   UNL     1       7.476   0.319  -0.335  1.00  0.00    -0.047 A 
ATOM      8  C   UNL     1       6.472   1.084  -0.910  1.00  0.00     0.004 A 
ATOM      9  C   UNL     1       7.344   0.036   1.013  1.00  0.00     0.004 A 
ATOM     10  C   UNL     1       5.397   1.544  -0.184  1.00  0.00     0.000 A 
ATOM     11  C   UNL     1       6.267   0.497   1.738  1.00  0.00     0.000 A 
ATOM     12  C   UNL     1       5.275   1.257   1.161  1.00  0.00     0.000 A 
ENDBRANCH   6   7
ENDBRANCH   1   6
TORSDOF 4
ENDMDL
