MODEL 1
REMARK VINA RESULT:      -7.3      0.000      0.000
REMARK SMILES O=C(O)CCc1ccccc1
REMARK SMILES IDX 4 1 2 2 1 3 3 4 5 6 6 7 7 8 11 9 8 10 10 11 9 12
REMARK H PARENT 3 5
REMARK Flexibility Score: inf
ROOT
ATOM      1  C   UNL     1       8.403  -0.613  -2.173  1.00  0.00     0.127 C 
ENDROOT
BRANCH   1   2
ATOM      2  C   UNL     1       8.434  -1.893  -2.903  1.00  0.00     0.303 C 
ATOM      3  O   UNL     1       9.537  -2.484  -3.056  1.00  0.00    -0.252 OA
BRANCH   2   4
ATOM      4  O   UNL     1       7.276  -2.478  -3.434  1.00  0.00    -0.481 OA
ATOM      5  H   UNL     1       7.309  -3.450  -3.712  1.00  0.00     0.296 HD
ENDBRANCH   2   4
ENDBRANCH   1   2
BRANCH   1   6
ATOM      6  C   UNL     1       7.020   0.013  -2.170  1.00  0.00     0.047 C 
BRANCH   6   7
ATOM      7  C   UNL     1       6.487   0.124  -0.787  1.00  0.00    -0.047 A 
ATOM      8  C   UNL     1       6.597  -0.937   0.100  1.00  0.00     0.004 A 
ATOM      9  C   UNL     1       5.856   1.261  -0.317  1.00  0.00     0.004 A 
ATOM     10  C   UNL     1       6.105  -0.870   1.383  1.00  0.00     0.000 A 
ATOM     11  C   UNL     1       5.364   1.326   0.969  1.00  0.00     0.000 A 
ATOM     12  C   UNL     1       5.475   0.269   1.843  1.00  0.00     0.000 A 
ENDBRANCH   6   7
ENDBRANCH   1   6
TORSDOF 4
ENDMDL
MODEL 2
REMARK VINA RESULT:      -7.3      0.111      1.722
REMARK SMILES O=C(O)CCc1ccccc1
REMARK SMILES IDX 4 1 2 2 1 3 3 4 5 6 6 7 7 8 11 9 8 10 10 11 9 12
REMARK H PARENT 3 5
REMARK Flexibility Score: inf
ROOT
ATOM      1  C   UNL     1       8.426  -0.662  -2.130  1.00  0.00     0.127 C 
ENDROOT
BRANCH   1   2
ATOM      2  C   UNL     1       8.414  -1.926  -2.887  1.00  0.00     0.303 C 
ATOM      3  O   UNL     1       7.307  -2.425  -3.228  1.00  0.00    -0.252 OA
BRANCH   2   4
ATOM      4  O   UNL     1       9.593  -2.595  -3.244  1.00  0.00    -0.481 OA
ATOM      5  H   UNL     1      10.472  -2.254  -2.879  1.00  0.00     0.296 HD
ENDBRANCH   2   4
ENDBRANCH   1   2
BRANCH   1   6
ATOM      6  C   UNL     1       7.070   0.022  -2.133  1.00  0.00     0.047 C 
BRANCH   6   7
ATOM      7  C   UNL     1       6.501   0.082  -0.761  1.00  0.00    -0.047 A 
ATOM      8  C   UNL     1       5.806   1.204  -0.332  1.00  0.00     0.004 A 
ATOM      9  C   UNL     1       6.636  -0.949   0.151  1.00  0.00     0.004 A 
ATOM     10  C   UNL     1       5.277   1.294   0.935  1.00  0.00     0.000 A 
ATOM     11  C   UNL     1       6.105  -0.856   1.419  1.00  0.00     0.000 A 
ATOM     12  C   UNL     1       5.418   0.260   1.838  1.00  0.00     0.000 A 
ENDBRANCH   6   7
ENDBRANCH   1   6
TORSDOF 4
ENDMDL
MODEL 3
REMARK VINA RESULT:      -6.8      3.385      5.054
REMARK SMILES O=C(O)CCc1ccccc1
REMARK SMILES IDX 4 1 2 2 1 3 3 4 5 6 6 7 7 8 11 9 8 10 10 11 9 12
REMARK H PARENT 3 5
REMARK Flexibility Score: inf
ROOT
ATOM      1  C   UNL     1       5.029   1.722   0.684  1.00  0.00     0.127 C 
ENDROOT
BRANCH   1   2
ATOM      2  C   UNL     1       4.502   1.097   1.910  1.00  0.00     0.303 C 
ATOM      3  O   UNL     1       5.187   0.211   2.488  1.00  0.00    -0.252 OA
BRANCH   2   4
ATOM      4  O   UNL     1       3.262   1.455   2.458  1.00  0.00    -0.481 OA
ATOM      5  H   UNL     1       3.245   2.101   3.236  1.00  0.00     0.296 HD
ENDBRANCH   2   4
ENDBRANCH   1   2
BRANCH   1   6
ATOM      6  C   UNL     1       6.538   1.880   0.723  1.00  0.00     0.047 C 
BRANCH   6   7
ATOM      7  C   UNL     1       7.185   1.083  -0.352  1.00  0.00    -0.047 A 
ATOM      8  C   UNL     1       6.449   0.179  -1.103  1.00  0.00     0.004 A 
ATOM      9  C   UNL     1       8.531   1.186  -0.652  1.00  0.00     0.004 A 
ATOM     10  C   UNL     1       7.020  -0.581  -2.097  1.00  0.00     0.000 A 
ATOM     11  C   UNL     1       9.102   0.424  -1.649  1.00  0.00     0.000 A 
ATOM     12  C   UNL     1       8.365  -0.472  -2.389  1.00  0.00     0.000 A 
ENDBRANCH   6   7
ENDBRANCH   1   6
TORSDOF 4
ENDMDL
MODEL 4
REMARK VINA RESULT:      -6.6      1.957      2.342
REMARK SMILES O=C(O)CCc1ccccc1
REMARK SMILES IDX 4 1 2 2 1 3 3 4 5 6 6 7 7 8 11 9 8 10 10 11 9 12
REMARK H PARENT 3 5
REMARK Flexibility Score: inf
ROOT
ATOM      1  C   UNL     1       8.309   0.249  -2.136  1.00  0.00     0.127 C 
ENDROOT
BRANCH   1   2
ATOM      2  C   UNL     1       9.439   0.394  -1.201  1.00  0.00     0.303 C 
ATOM      3  O   UNL     1       9.503  -0.366  -0.196  1.00  0.00    -0.252 OA
BRANCH   2   4
ATOM      4  O   UNL     1      10.450   1.347  -1.391  1.00  0.00    -0.481 OA
ATOM      5  H   UNL     1      11.409   1.032  -1.440  1.00  0.00     0.296 HD
ENDBRANCH   2   4
ENDBRANCH   1   2
BRANCH   1   6
ATOM      6  C   UNL     1       7.180  -0.578  -1.548  1.00  0.00     0.047 C 
BRANCH   6   7
ATOM      7  C   UNL     1       6.383   0.220  -0.580  1.00  0.00    -0.047 A 
ATOM      8  C   UNL     1       6.157  -0.249   0.707  1.00  0.00     0.004 A 
ATOM      9  C   UNL     1       5.824   1.443  -0.900  1.00  0.00     0.004 A 
ATOM     10  C   UNL     1       5.415   0.461   1.622  1.00  0.00     0.000 A 
ATOM     11  C   UNL     1       5.081   2.153   0.019  1.00  0.00     0.000 A 
ATOM     12  C   UNL     1       4.860   1.681   1.293  1.00  0.00     0.000 A 
ENDBRANCH   6   7
ENDBRANCH   1   6
TORSDOF 4
ENDMDL
MODEL 5
REMARK VINA RESULT:      -6.6      1.868      2.874
REMARK SMILES O=C(O)CCc1ccccc1
REMARK SMILES IDX 4 1 2 2 1 3 3 4 5 6 6 7 7 8 11 9 8 10 10 11 9 12
REMARK H PARENT 3 5
REMARK Flexibility Score: inf
ROOT
ATOM      1  C   UNL     1       8.248  -1.576   0.980  1.00  0.00     0.127 C 
ENDROOT
BRANCH   1   2
ATOM      2  C   UNL     1       8.511  -2.817   0.229  1.00  0.00     0.303 C 
ATOM      3  O   UNL     1       9.096  -3.771   0.809  1.00  0.00    -0.252 OA
BRANCH   2   4
ATOM      4  O   UNL     1       8.131  -2.974  -1.112  1.00  0.00    -0.481 OA
ATOM      5  H   UNL     1       8.621  -2.443  -1.819  1.00  0.00     0.296 HD
ENDBRANCH   2   4
ENDBRANCH   1   2
BRANCH   1   6
ATOM      6  C   UNL     1       6.780  -1.421   1.335  1.00  0.00     0.047 C 
BRANCH   6   7
ATOM      7  C   UNL     1       6.223  -0.169   0.759  1.00  0.00    -0.047 A 
ATOM      8  C   UNL     1       5.425   0.669   1.526  1.00  0.00     0.004 A 
ATOM      9  C   UNL     1       6.452   0.221  -0.547  1.00  0.00     0.004 A 
ATOM     10  C   UNL     1       4.886   1.829   1.019  1.00  0.00     0.000 A 
ATOM     11  C   UNL     1       5.911   1.383  -1.053  1.00  0.00     0.000 A 
ATOM     12  C   UNL     1       5.120   2.208  -0.287  1.00  0.00     0.000 A 
ENDBRANCH   6   7
ENDBRANCH   1   6
TORSDOF 4
ENDMDL
