@<TRIPOS>MOLECULE
/home/cewinharhar/GITHUB/reincatalyze/data/processed/docking_pred/2023-Apr-25-2248_maxeplen10_maxtrainstep1000_exh16_gamma099_lrac3e-4_lrcr1e-3/97a603521aa4ec025b6db977763cb198737ffc85_ligand_2.pdbqt
 12 12 0 0 0
SMALL
GASTEIGER

@<TRIPOS>ATOM
      1  C          8.4260   -0.6620   -2.1300 C.3     1  UNL1        0.1270
      2  C          8.4140   -1.9260   -2.8870 C.2     1  UNL1        0.3030
      3  O          7.3070   -2.4250   -3.2280 O.2     1  UNL1       -0.2520
      4  O          9.5930   -2.5950   -3.2440 O.3     1  UNL1       -0.4810
      5  H         10.4720   -2.2540   -2.8790 H       1  UNL1        0.2960
      6  C          7.0700    0.0220   -2.1330 C.3     1  UNL1        0.0470
      7  C          6.5010    0.0820   -0.7610 C.2     1  UNL1       -0.0470
      8  C          5.8060    1.2040   -0.3320 C.2     1  UNL1        0.0040
      9  C          6.6360   -0.9490    0.1510 C.2     1  UNL1        0.0040
     10  C          5.2770    1.2940    0.9350 C.2     1  UNL1        0.0000
     11  C          6.1050   -0.8560    1.4190 C.2     1  UNL1        0.0000
     12  C          5.4180    0.2600    1.8380 C.2     1  UNL1        0.0000
@<TRIPOS>BOND
     1     4     2    1
     2     4     5    1
     3     3     2    2
     4     2     1    1
     5     6     1    1
     6     6     7    1
     7     7     8    2
     8     7     9    1
     9     8    10    1
    10     9    11    2
    11    10    12    2
    12    11    12    1
