@<TRIPOS>MOLECULE
/home/cewinharhar/GITHUB/reincatalyze/data/processed/docking_pred/2023-Apr-25-2248_maxeplen10_maxtrainstep1000_exh16_gamma099_lrac3e-4_lrcr1e-3/97a603521aa4ec025b6db977763cb198737ffc85_ligand_2.pdbqt
 12 12 0 0 0
SMALL
GASTEIGER

@<TRIPOS>ATOM
      1  C          8.2480   -1.5760    0.9800 C.3     1  UNL1        0.1270
      2  C          8.5110   -2.8170    0.2290 C.2     1  UNL1        0.3030
      3  O          9.0960   -3.7710    0.8090 O.2     1  UNL1       -0.2520
      4  O          8.1310   -2.9740   -1.1120 O.3     1  UNL1       -0.4810
      5  H          8.6210   -2.4430   -1.8190 H       1  UNL1        0.2960
      6  C          6.7800   -1.4210    1.3350 C.3     1  UNL1        0.0470
      7  C          6.2230   -0.1690    0.7590 C.2     1  UNL1       -0.0470
      8  C          5.4250    0.6690    1.5260 C.2     1  UNL1        0.0040
      9  C          6.4520    0.2210   -0.5470 C.2     1  UNL1        0.0040
     10  C          4.8860    1.8290    1.0190 C.2     1  UNL1        0.0000
     11  C          5.9110    1.3830   -1.0530 C.2     1  UNL1        0.0000
     12  C          5.1200    2.2080   -0.2870 C.2     1  UNL1        0.0000
@<TRIPOS>BOND
     1     5     4    1
     2     4     2    1
     3    11     9    1
     4    11    12    2
     5     9     7    2
     6    12    10    1
     7     2     3    2
     8     2     1    1
     9     7     6    1
    10     7     8    1
    11     1     6    1
    12    10     8    2
