@<TRIPOS>MOLECULE
/home/cewinharhar/GITHUB/reincatalyze/data/processed/docking_pred/2023-Apr-25-2248_maxeplen10_maxtrainstep1000_exh16_gamma099_lrac3e-4_lrcr1e-3/97a603521aa4ec025b6db977763cb198737ffc85_ligand_2.pdbqt
 12 12 0 0 0
SMALL
GASTEIGER

@<TRIPOS>ATOM
      1  C          8.3090    0.2490   -2.1360 C.3     1  UNL1        0.1270
      2  C          9.4390    0.3940   -1.2010 C.2     1  UNL1        0.3030
      3  O          9.5030   -0.3660   -0.1960 O.2     1  UNL1       -0.2520
      4  O         10.4500    1.3470   -1.3910 O.3     1  UNL1       -0.4810
      5  H         11.4090    1.0320   -1.4400 H       1  UNL1        0.2960
      6  C          7.1800   -0.5780   -1.5480 C.3     1  UNL1        0.0470
      7  C          6.3830    0.2200   -0.5800 C.2     1  UNL1       -0.0470
      8  C          6.1570   -0.2490    0.7070 C.2     1  UNL1        0.0040
      9  C          5.8240    1.4430   -0.9000 C.2     1  UNL1        0.0040
     10  C          5.4150    0.4610    1.6220 C.2     1  UNL1        0.0000
     11  C          5.0810    2.1530    0.0190 C.2     1  UNL1        0.0000
     12  C          4.8600    1.6810    1.2930 C.2     1  UNL1        0.0000
@<TRIPOS>BOND
     1     1     6    1
     2     1     2    1
     3     6     7    1
     4     5     4    1
     5     4     2    1
     6     2     3    2
     7     9     7    2
     8     9    11    1
     9     7     8    1
    10    11    12    2
    11     8    10    2
    12    12    10    1
