@<TRIPOS>MOLECULE
/home/cewinharhar/GITHUB/reincatalyze/data/processed/docking_pred/2023-Apr-25-2248_maxeplen10_maxtrainstep1000_exh16_gamma099_lrac3e-4_lrcr1e-3/97a603521aa4ec025b6db977763cb198737ffc85_ligand_2.pdbqt
 12 12 0 0 0
SMALL
GASTEIGER

@<TRIPOS>ATOM
      1  C          8.4030   -0.6130   -2.1730 C.3     1  UNL1        0.1270
      2  C          8.4340   -1.8930   -2.9030 C.2     1  UNL1        0.3030
      3  O          9.5370   -2.4840   -3.0560 O.2     1  UNL1       -0.2520
      4  O          7.2760   -2.4780   -3.4340 O.3     1  UNL1       -0.4810
      5  H          7.3090   -3.4500   -3.7120 H       1  UNL1        0.2960
      6  C          7.0200    0.0130   -2.1700 C.3     1  UNL1        0.0470
      7  C          6.4870    0.1240   -0.7870 C.2     1  UNL1       -0.0470
      8  C          6.5970   -0.9370    0.1000 C.2     1  UNL1        0.0040
      9  C          5.8560    1.2610   -0.3170 C.2     1  UNL1        0.0040
     10  C          6.1050   -0.8700    1.3830 C.2     1  UNL1        0.0000
     11  C          5.3640    1.3260    0.9690 C.2     1  UNL1        0.0000
     12  C          5.4750    0.2690    1.8430 C.2     1  UNL1        0.0000
@<TRIPOS>BOND
     1     5     4    1
     2     4     2    1
     3     3     2    2
     4     2     1    1
     5     1     6    1
     6     6     7    1
     7     7     9    2
     8     7     8    1
     9     9    11    1
    10     8    10    2
    11    11    12    2
    12    10    12    1
