@<TRIPOS>MOLECULE
/home/cewinharhar/GITHUB/reincatalyze/data/processed/docking_pred/2023-Apr-25-2248_maxeplen10_maxtrainstep1000_exh16_gamma099_lrac3e-4_lrcr1e-3/97a603521aa4ec025b6db977763cb198737ffc85_ligand_2.pdbqt
 12 12 0 0 0
SMALL
GASTEIGER

@<TRIPOS>ATOM
      1  C          5.0290    1.7220    0.6840 C.3     1  UNL1        0.1270
      2  C          4.5020    1.0970    1.9100 C.2     1  UNL1        0.3030
      3  O          5.1870    0.2110    2.4880 O.2     1  UNL1       -0.2520
      4  O          3.2620    1.4550    2.4580 O.3     1  UNL1       -0.4810
      5  H          3.2450    2.1010    3.2360 H       1  UNL1        0.2960
      6  C          6.5380    1.8800    0.7230 C.3     1  UNL1        0.0470
      7  C          7.1850    1.0830   -0.3520 C.2     1  UNL1       -0.0470
      8  C          6.4490    0.1790   -1.1030 C.2     1  UNL1        0.0040
      9  C          8.5310    1.1860   -0.6520 C.2     1  UNL1        0.0040
     10  C          7.0200   -0.5810   -2.0970 C.2     1  UNL1        0.0000
     11  C          9.1020    0.4240   -1.6490 C.2     1  UNL1        0.0000
     12  C          8.3650   -0.4720   -2.3890 C.2     1  UNL1        0.0000
@<TRIPOS>BOND
     1    12    10    2
     2    12    11    1
     3    10     8    1
     4    11     9    2
     5     8     7    2
     6     9     7    1
     7     7     6    1
     8     1     6    1
     9     1     2    1
    10     2     4    1
    11     2     3    2
    12     4     5    1
