@<TRIPOS>MOLECULE
/home/cewinharhar/GITHUB/reincatalyze/data/processed/docking_pred/2023-Apr-25-2248_maxeplen10_maxtrainstep1000_exh16_gamma099_lrac3e-4_lrcr1e-3/97b80f67ae9ab19215981068b7c743dd8d1e9d0d_ligand_2.pdbqt
 12 12 0 0 0
SMALL
GASTEIGER

@<TRIPOS>ATOM
      1  C          8.3710   -0.5990   -2.2000 C.3     1  UNL1        0.1270
      2  C          8.3770   -1.8910   -2.9110 C.2     1  UNL1        0.3030
      3  O          7.2780   -2.4090   -3.2470 O.2     1  UNL1       -0.2520
      4  O          9.5660   -2.5640   -3.2280 O.3     1  UNL1       -0.4810
      5  H          9.9390   -2.4710   -4.1630 H       1  UNL1        0.2960
      6  C          6.9880    0.0250   -2.1560 C.3     1  UNL1        0.0470
      7  C          6.4670    0.0660   -0.7640 C.2     1  UNL1       -0.0470
      8  C          5.8040    1.1890   -0.2900 C.2     1  UNL1        0.0040
      9  C          6.6160   -0.9840    0.1220 C.2     1  UNL1        0.0040
     10  C          5.3190    1.2620    0.9960 C.2     1  UNL1        0.0000
     11  C          6.1300   -0.9090    1.4100 C.2     1  UNL1        0.0000
     12  C          5.4750    0.2090    1.8740 C.2     1  UNL1        0.0000
@<TRIPOS>BOND
     1     5     4    1
     2     3     2    2
     3     4     2    1
     4     2     1    1
     5     1     6    1
     6     6     7    1
     7     7     8    2
     8     7     9    1
     9     8    10    1
    10     9    11    2
    11    10    12    2
    12    11    12    1
