@<TRIPOS>MOLECULE
/home/cewinharhar/GITHUB/reincatalyze/data/processed/docking_pred/2023-Apr-25-2248_maxeplen10_maxtrainstep1000_exh16_gamma099_lrac3e-4_lrcr1e-3/97b80f67ae9ab19215981068b7c743dd8d1e9d0d_ligand_2.pdbqt
 12 12 0 0 0
SMALL
GASTEIGER

@<TRIPOS>ATOM
      1  C          4.9950    1.7830    0.7350 C.3     1  UNL1        0.1270
      2  C          4.4610    1.1110    1.9330 C.2     1  UNL1        0.3030
      3  O          5.1410    0.1990    2.4770 O.2     1  UNL1       -0.2520
      4  O          3.2210    1.4510    2.4910 O.3     1  UNL1       -0.4810
      5  H          2.7680    0.7870    3.1050 H       1  UNL1        0.2960
      6  C          6.5070    1.9130    0.7760 C.3     1  UNL1        0.0470
      7  C          7.1380    1.1280   -0.3170 C.2     1  UNL1       -0.0470
      8  C          6.3920    0.2280   -1.0640 C.2     1  UNL1        0.0040
      9  C          8.4780    1.2380   -0.6400 C.2     1  UNL1        0.0040
     10  C          6.9490   -0.5210   -2.0750 C.2     1  UNL1        0.0000
     11  C          9.0350    0.4880   -1.6540 C.2     1  UNL1        0.0000
     12  C          8.2880   -0.4040   -2.3890 C.2     1  UNL1        0.0000
@<TRIPOS>BOND
     1    12    10    2
     2    12    11    1
     3    10     8    1
     4    11     9    2
     5     8     7    2
     6     9     7    1
     7     7     6    1
     8     1     6    1
     9     1     2    1
    10     2     3    2
    11     2     4    1
    12     4     5    1
