@<TRIPOS>MOLECULE
/home/cewinharhar/GITHUB/reincatalyze/data/processed/docking_pred/2023-Apr-25-2248_maxeplen10_maxtrainstep1000_exh16_gamma099_lrac3e-4_lrcr1e-3/97b80f67ae9ab19215981068b7c743dd8d1e9d0d_ligand_2.pdbqt
 12 12 0 0 0
SMALL
GASTEIGER

@<TRIPOS>ATOM
      1  C          8.4160   -0.7070   -2.0440 C.3     1  UNL1        0.1270
      2  C          8.4020   -1.9270   -2.8700 C.2     1  UNL1        0.3030
      3  O          7.2950   -2.4110   -3.2290 O.2     1  UNL1       -0.2520
      4  O          9.5810   -2.5710   -3.2730 O.3     1  UNL1       -0.4810
      5  H         10.3730   -2.5670   -2.6440 H       1  UNL1        0.2960
      6  C          7.0990    0.0450   -2.1110 C.3     1  UNL1        0.0470
      7  C          6.4980    0.1870   -0.7590 C.2     1  UNL1       -0.0470
      8  C          6.6360   -0.8190    0.1860 C.2     1  UNL1        0.0040
      9  C          5.7740    1.3010   -0.3750 C.2     1  UNL1        0.0040
     10  C          6.0830   -0.7220    1.4430 C.2     1  UNL1        0.0000
     11  C          5.2200    1.3960    0.8840 C.2     1  UNL1        0.0000
     12  C          5.3610    0.3930    1.8160 C.2     1  UNL1        0.0000
@<TRIPOS>BOND
     1     4     2    1
     2     4     5    1
     3     3     2    2
     4     2     1    1
     5     6     1    1
     6     6     7    1
     7     7     9    2
     8     7     8    1
     9     9    11    1
    10     8    10    2
    11    11    12    2
    12    10    12    1
