@<TRIPOS>MOLECULE
/home/cewinharhar/GITHUB/reincatalyze/data/processed/docking_pred/2023-Apr-25-2248_maxeplen10_maxtrainstep1000_exh16_gamma099_lrac3e-4_lrcr1e-3/97b80f67ae9ab19215981068b7c743dd8d1e9d0d_ligand_2.pdbqt
 12 12 0 0 0
SMALL
GASTEIGER

@<TRIPOS>ATOM
      1  C          8.2380    0.1800   -2.1910 C.3     1  UNL1        0.1270
      2  C          9.3510    0.3360   -1.2370 C.2     1  UNL1        0.3030
      3  O          9.4100   -0.4260   -0.2350 O.2     1  UNL1       -0.2520
      4  O         10.3500    1.3050   -1.4070 O.3     1  UNL1       -0.4810
      5  H         11.0640    1.3940   -0.6960 H       1  UNL1        0.2960
      6  C          7.0750   -0.5910   -1.5930 C.3     1  UNL1        0.0470
      7  C          6.3090    0.2550   -0.6400 C.2     1  UNL1       -0.0470
      8  C          5.8190    1.4930   -1.0290 C.2     1  UNL1        0.0040
      9  C          6.0540   -0.1290    0.6630 C.2     1  UNL1        0.0040
     10  C          5.1160    2.3040   -0.1680 C.2     1  UNL1        0.0000
     11  C          5.3490    0.6840    1.5250 C.2     1  UNL1        0.0000
     12  C          4.8670    1.9120    1.1320 C.2     1  UNL1        0.0000
@<TRIPOS>BOND
     1     1     6    1
     2     1     2    1
     3     6     7    1
     4     4     2    1
     5     4     5    1
     6     2     3    2
     7     8     7    2
     8     8    10    1
     9     7     9    1
    10    10    12    2
    11     9    11    2
    12    12    11    1
