@<TRIPOS>MOLECULE
/home/cewinharhar/GITHUB/reincatalyze/data/processed/docking_pred/2023-Apr-25-2248_maxeplen10_maxtrainstep1000_exh16_gamma099_lrac3e-4_lrcr1e-3/97b80f67ae9ab19215981068b7c743dd8d1e9d0d_ligand_2.pdbqt
 12 12 0 0 0
SMALL
GASTEIGER

@<TRIPOS>ATOM
      1  C          8.1810   -0.8940   -1.9580 C.3     1  UNL1        0.1270
      2  C          8.3380   -2.0250   -2.8890 C.2     1  UNL1        0.3030
      3  O          9.4830   -2.5250   -3.0570 O.2     1  UNL1       -0.2520
      4  O          7.2550   -2.5680   -3.5960 O.3     1  UNL1       -0.4810
      5  H          6.7130   -3.3020   -3.1620 H       1  UNL1        0.2960
      6  C          7.5940   -1.3250   -0.6260 C.3     1  UNL1        0.0470
      7  C          6.6800   -0.2850   -0.0850 C.2     1  UNL1       -0.0470
      8  C          6.1650   -0.3930    1.1990 C.2     1  UNL1        0.0040
      9  C          6.2890    0.8220   -0.8160 C.2     1  UNL1        0.0040
     10  C          5.3090    0.5470    1.7250 C.2     1  UNL1        0.0000
     11  C          5.4320    1.7630   -0.2890 C.2     1  UNL1        0.0000
     12  C          4.9240    1.6480    0.9860 C.2     1  UNL1        0.0000
@<TRIPOS>BOND
     1     4     5    1
     2     4     2    1
     3     3     2    2
     4     2     1    1
     5     1     6    1
     6     9    11    1
     7     9     7    2
     8     6     7    1
     9    11    12    2
    10     7     8    1
    11    12    10    1
    12     8    10    2
