@<TRIPOS>MOLECULE
/home/cewinharhar/GITHUB/reincatalyze/data/processed/docking_pred/2023-Apr-25-2248_maxeplen10_maxtrainstep1000_exh16_gamma099_lrac3e-4_lrcr1e-3/98720eda2f8b5e3d73e45599e80051818594e19a_ligand_2.pdbqt
 12 12 0 0 0
SMALL
GASTEIGER

@<TRIPOS>ATOM
      1  C          8.4050   -0.7100   -2.0540 C.3     1  UNL1        0.1270
      2  C          8.3970   -1.9360   -2.8710 C.2     1  UNL1        0.3030
      3  O          7.2930   -2.4170   -3.2420 O.2     1  UNL1       -0.2520
      4  O          9.5790   -2.5880   -3.2520 O.3     1  UNL1       -0.4810
      5  H         10.2980   -2.0510   -3.7180 H       1  UNL1        0.2960
      6  C          7.0700    0.0130   -2.0910 C.3     1  UNL1        0.0470
      7  C          6.4790    0.1110   -0.7300 C.2     1  UNL1       -0.0470
      8  C          5.7840    1.2460   -0.3410 C.2     1  UNL1        0.0040
      9  C          6.5940   -0.8970    0.2100 C.2     1  UNL1        0.0040
     10  C          5.2340    1.3720    0.9150 C.2     1  UNL1        0.0000
     11  C          6.0440   -0.7700    1.4670 C.2     1  UNL1        0.0000
     12  C          5.3560    0.3610    1.8460 C.2     1  UNL1        0.0000
@<TRIPOS>BOND
     1     5     4    1
     2     4     2    1
     3     3     2    2
     4     2     1    1
     5     6     1    1
     6     6     7    1
     7     7     8    2
     8     7     9    1
     9     8    10    1
    10     9    11    2
    11    10    12    2
    12    11    12    1
