MODEL 1
REMARK VINA RESULT:      -7.3      0.000      0.000
REMARK SMILES O=C(O)CCc1ccccc1
REMARK SMILES IDX 4 1 2 2 1 3 3 4 5 6 6 7 7 8 11 9 8 10 10 11 9 12
REMARK H PARENT 3 5
REMARK Flexibility Score: inf
ROOT
ATOM      1  C   UNL     1       8.395  -0.649  -2.139  1.00  0.00     0.127 C 
ENDROOT
BRANCH   1   2
ATOM      2  C   UNL     1       8.420  -1.909  -2.904  1.00  0.00     0.303 C 
ATOM      3  O   UNL     1       9.520  -2.503  -3.069  1.00  0.00    -0.252 OA
BRANCH   2   4
ATOM      4  O   UNL     1       7.260  -2.473  -3.454  1.00  0.00    -0.481 OA
ATOM      5  H   UNL     1       6.473  -1.867  -3.648  1.00  0.00     0.296 HD
ENDBRANCH   2   4
ENDBRANCH   1   2
BRANCH   1   6
ATOM      6  C   UNL     1       7.014  -0.019  -2.115  1.00  0.00     0.047 C 
BRANCH   6   7
ATOM      7  C   UNL     1       6.485   0.051  -0.728  1.00  0.00    -0.047 A 
ATOM      8  C   UNL     1       6.623  -1.024   0.138  1.00  0.00     0.004 A 
ATOM      9  C   UNL     1       5.830   1.164  -0.233  1.00  0.00     0.004 A 
ATOM     10  C   UNL     1       6.136  -0.994   1.424  1.00  0.00     0.000 A 
ATOM     11  C   UNL     1       5.342   1.193   1.056  1.00  0.00     0.000 A 
ATOM     12  C   UNL     1       5.482   0.122   1.909  1.00  0.00     0.000 A 
ENDBRANCH   6   7
ENDBRANCH   1   6
TORSDOF 4
ENDMDL
MODEL 2
REMARK VINA RESULT:      -7.3      0.180      1.727
REMARK SMILES O=C(O)CCc1ccccc1
REMARK SMILES IDX 4 1 2 2 1 3 3 4 5 6 6 7 7 8 11 9 8 10 10 11 9 12
REMARK H PARENT 3 5
REMARK Flexibility Score: inf
ROOT
ATOM      1  C   UNL     1       8.405  -0.710  -2.054  1.00  0.00     0.127 C 
ENDROOT
BRANCH   1   2
ATOM      2  C   UNL     1       8.397  -1.936  -2.871  1.00  0.00     0.303 C 
ATOM      3  O   UNL     1       7.293  -2.417  -3.242  1.00  0.00    -0.252 OA
BRANCH   2   4
ATOM      4  O   UNL     1       9.579  -2.588  -3.252  1.00  0.00    -0.481 OA
ATOM      5  H   UNL     1      10.298  -2.051  -3.718  1.00  0.00     0.296 HD
ENDBRANCH   2   4
ENDBRANCH   1   2
BRANCH   1   6
ATOM      6  C   UNL     1       7.070   0.013  -2.091  1.00  0.00     0.047 C 
BRANCH   6   7
ATOM      7  C   UNL     1       6.479   0.111  -0.730  1.00  0.00    -0.047 A 
ATOM      8  C   UNL     1       5.784   1.246  -0.341  1.00  0.00     0.004 A 
ATOM      9  C   UNL     1       6.594  -0.897   0.210  1.00  0.00     0.004 A 
ATOM     10  C   UNL     1       5.234   1.372   0.915  1.00  0.00     0.000 A 
ATOM     11  C   UNL     1       6.044  -0.770   1.467  1.00  0.00     0.000 A 
ATOM     12  C   UNL     1       5.356   0.361   1.846  1.00  0.00     0.000 A 
ENDBRANCH   6   7
ENDBRANCH   1   6
TORSDOF 4
ENDMDL
MODEL 3
REMARK VINA RESULT:      -6.8      3.401      5.093
REMARK SMILES O=C(O)CCc1ccccc1
REMARK SMILES IDX 4 1 2 2 1 3 3 4 5 6 6 7 7 8 11 9 8 10 10 11 9 12
REMARK H PARENT 3 5
REMARK Flexibility Score: inf
ROOT
ATOM      1  C   UNL     1       4.992   1.815   0.742  1.00  0.00     0.127 C 
ENDROOT
BRANCH   1   2
ATOM      2  C   UNL     1       4.461   1.124   1.930  1.00  0.00     0.303 C 
ATOM      3  O   UNL     1       5.146   0.210   2.464  1.00  0.00    -0.252 OA
BRANCH   2   4
ATOM      4  O   UNL     1       3.218   1.450   2.491  1.00  0.00    -0.481 OA
ATOM      5  H   UNL     1       2.660   2.168   2.048  1.00  0.00     0.296 HD
ENDBRANCH   2   4
ENDBRANCH   1   2
BRANCH   1   6
ATOM      6  C   UNL     1       6.507   1.913   0.764  1.00  0.00     0.047 C 
BRANCH   6   7
ATOM      7  C   UNL     1       7.109   1.100  -0.325  1.00  0.00    -0.047 A 
ATOM      8  C   UNL     1       8.460   1.206  -0.623  1.00  0.00     0.004 A 
ATOM      9  C   UNL     1       6.373   0.217  -1.095  1.00  0.00     0.004 A 
ATOM     10  C   UNL     1       9.045   0.475  -1.632  1.00  0.00     0.000 A 
ATOM     11  C   UNL     1       6.961  -0.514  -2.105  1.00  0.00     0.000 A 
ATOM     12  C   UNL     1       8.301  -0.402  -2.395  1.00  0.00     0.000 A 
ENDBRANCH   6   7
ENDBRANCH   1   6
TORSDOF 4
ENDMDL
MODEL 4
REMARK VINA RESULT:      -6.6      2.028      2.556
REMARK SMILES O=C(O)CCc1ccccc1
REMARK SMILES IDX 4 1 2 2 1 3 3 4 5 6 6 7 7 8 11 9 8 10 10 11 9 12
REMARK H PARENT 3 5
REMARK Flexibility Score: inf
ROOT
ATOM      1  C   UNL     1       7.957  -2.309   0.701  1.00  0.00     0.127 C 
ENDROOT
BRANCH   1   2
ATOM      2  C   UNL     1       8.789  -3.450   0.281  1.00  0.00     0.303 C 
ATOM      3  O   UNL     1       9.666  -3.893   1.072  1.00  0.00    -0.252 OA
BRANCH   2   4
ATOM      4  O   UNL     1       8.638  -4.066  -0.970  1.00  0.00    -0.481 OA
ATOM      5  H   UNL     1       8.033  -4.873  -1.042  1.00  0.00     0.296 HD
ENDBRANCH   2   4
ENDBRANCH   1   2
BRANCH   1   6
ATOM      6  C   UNL     1       7.509  -1.462  -0.476  1.00  0.00     0.047 C 
BRANCH   6   7
ATOM      7  C   UNL     1       6.638  -0.344  -0.028  1.00  0.00    -0.047 A 
ATOM      8  C   UNL     1       6.109  -0.330   1.255  1.00  0.00     0.004 A 
ATOM      9  C   UNL     1       6.303   0.719  -0.846  1.00  0.00     0.004 A 
ATOM     10  C   UNL     1       5.291   0.685   1.697  1.00  0.00     0.000 A 
ATOM     11  C   UNL     1       5.484   1.735  -0.402  1.00  0.00     0.000 A 
ATOM     12  C   UNL     1       4.962   1.741   0.871  1.00  0.00     0.000 A 
ENDBRANCH   6   7
ENDBRANCH   1   6
TORSDOF 4
ENDMDL
MODEL 5
REMARK VINA RESULT:      -6.5      2.092      2.772
REMARK SMILES O=C(O)CCc1ccccc1
REMARK SMILES IDX 4 1 2 2 1 3 3 4 5 6 6 7 7 8 11 9 8 10 10 11 9 12
REMARK H PARENT 3 5
REMARK Flexibility Score: inf
ROOT
ATOM      1  C   UNL     1       8.519   0.651  -1.617  1.00  0.00     0.127 C 
ENDROOT
BRANCH   1   2
ATOM      2  C   UNL     1       9.682   0.274  -0.794  1.00  0.00     0.303 C 
ATOM      3  O   UNL     1       9.516  -0.514   0.176  1.00  0.00    -0.252 OA
BRANCH   2   4
ATOM      4  O   UNL     1      10.971   0.762  -1.053  1.00  0.00    -0.481 OA
ATOM      5  H   UNL     1      11.556   1.021  -0.270  1.00  0.00     0.296 HD
ENDBRANCH   2   4
ENDBRANCH   1   2
BRANCH   1   6
ATOM      6  C   UNL     1       7.335  -0.273  -1.394  1.00  0.00     0.047 C 
BRANCH   6   7
ATOM      7  C   UNL     1       6.431   0.263  -0.343  1.00  0.00    -0.047 A 
ATOM      8  C   UNL     1       5.810   1.493  -0.504  1.00  0.00     0.004 A 
ATOM      9  C   UNL     1       6.171  -0.411   0.835  1.00  0.00     0.004 A 
ATOM     10  C   UNL     1       4.977   2.022   0.455  1.00  0.00     0.000 A 
ATOM     11  C   UNL     1       5.336   0.119   1.795  1.00  0.00     0.000 A 
ATOM     12  C   UNL     1       4.724   1.341   1.629  1.00  0.00     0.000 A 
ENDBRANCH   6   7
ENDBRANCH   1   6
TORSDOF 4
ENDMDL
