@<TRIPOS>MOLECULE
/home/cewinharhar/GITHUB/reincatalyze/data/processed/docking_pred/2023-Apr-25-2248_maxeplen10_maxtrainstep1000_exh16_gamma099_lrac3e-4_lrcr1e-3/98720eda2f8b5e3d73e45599e80051818594e19a_ligand_2.pdbqt
 12 12 0 0 0
SMALL
GASTEIGER

@<TRIPOS>ATOM
      1  C          7.9570   -2.3090    0.7010 C.3     1  UNL1        0.1270
      2  C          8.7890   -3.4500    0.2810 C.2     1  UNL1        0.3030
      3  O          9.6660   -3.8930    1.0720 O.2     1  UNL1       -0.2520
      4  O          8.6380   -4.0660   -0.9700 O.3     1  UNL1       -0.4810
      5  H          8.0330   -4.8730   -1.0420 H       1  UNL1        0.2960
      6  C          7.5090   -1.4620   -0.4760 C.3     1  UNL1        0.0470
      7  C          6.6380   -0.3440   -0.0280 C.2     1  UNL1       -0.0470
      8  C          6.1090   -0.3300    1.2550 C.2     1  UNL1        0.0040
      9  C          6.3030    0.7190   -0.8460 C.2     1  UNL1        0.0040
     10  C          5.2910    0.6850    1.6970 C.2     1  UNL1        0.0000
     11  C          5.4840    1.7350   -0.4020 C.2     1  UNL1        0.0000
     12  C          4.9620    1.7410    0.8710 C.2     1  UNL1        0.0000
@<TRIPOS>BOND
     1     5     4    1
     2     4     2    1
     3     9    11    1
     4     9     7    2
     5     6     7    1
     6     6     1    1
     7    11    12    2
     8     7     8    1
     9     2     1    1
    10     2     3    2
    11    12    10    1
    12     8    10    2
