@<TRIPOS>MOLECULE
/home/cewinharhar/GITHUB/reincatalyze/data/processed/docking_pred/2023-Apr-25-2248_maxeplen10_maxtrainstep1000_exh16_gamma099_lrac3e-4_lrcr1e-3/98720eda2f8b5e3d73e45599e80051818594e19a_ligand_2.pdbqt
 12 12 0 0 0
SMALL
GASTEIGER

@<TRIPOS>ATOM
      1  C          8.5190    0.6510   -1.6170 C.3     1  UNL1        0.1270
      2  C          9.6820    0.2740   -0.7940 C.2     1  UNL1        0.3030
      3  O          9.5160   -0.5140    0.1760 O.2     1  UNL1       -0.2520
      4  O         10.9710    0.7620   -1.0530 O.3     1  UNL1       -0.4810
      5  H         11.5560    1.0210   -0.2700 H       1  UNL1        0.2960
      6  C          7.3350   -0.2730   -1.3940 C.3     1  UNL1        0.0470
      7  C          6.4310    0.2630   -0.3430 C.2     1  UNL1       -0.0470
      8  C          5.8100    1.4930   -0.5040 C.2     1  UNL1        0.0040
      9  C          6.1710   -0.4110    0.8350 C.2     1  UNL1        0.0040
     10  C          4.9770    2.0220    0.4550 C.2     1  UNL1        0.0000
     11  C          5.3360    0.1190    1.7950 C.2     1  UNL1        0.0000
     12  C          4.7240    1.3410    1.6290 C.2     1  UNL1        0.0000
@<TRIPOS>BOND
     1     1     6    1
     2     1     2    1
     3     6     7    1
     4     4     2    1
     5     4     5    1
     6     2     3    2
     7     8     7    2
     8     8    10    1
     9     7     9    1
    10    10    12    2
    11     9    11    2
    12    12    11    1
