@<TRIPOS>MOLECULE
/home/cewinharhar/GITHUB/reincatalyze/data/processed/docking_pred/2023-Apr-25-2248_maxeplen10_maxtrainstep1000_exh16_gamma099_lrac3e-4_lrcr1e-3/98720eda2f8b5e3d73e45599e80051818594e19a_ligand_2.pdbqt
 12 12 0 0 0
SMALL
GASTEIGER

@<TRIPOS>ATOM
      1  C          4.9920    1.8150    0.7420 C.3     1  UNL1        0.1270
      2  C          4.4610    1.1240    1.9300 C.2     1  UNL1        0.3030
      3  O          5.1460    0.2100    2.4640 O.2     1  UNL1       -0.2520
      4  O          3.2180    1.4500    2.4910 O.3     1  UNL1       -0.4810
      5  H          2.6600    2.1680    2.0480 H       1  UNL1        0.2960
      6  C          6.5070    1.9130    0.7640 C.3     1  UNL1        0.0470
      7  C          7.1090    1.1000   -0.3250 C.2     1  UNL1       -0.0470
      8  C          8.4600    1.2060   -0.6230 C.2     1  UNL1        0.0040
      9  C          6.3730    0.2170   -1.0950 C.2     1  UNL1        0.0040
     10  C          9.0450    0.4750   -1.6320 C.2     1  UNL1        0.0000
     11  C          6.9610   -0.5140   -2.1050 C.2     1  UNL1        0.0000
     12  C          8.3010   -0.4020   -2.3950 C.2     1  UNL1        0.0000
@<TRIPOS>BOND
     1    12    11    2
     2    12    10    1
     3    11     9    1
     4    10     8    2
     5     9     7    2
     6     8     7    1
     7     7     6    1
     8     1     6    1
     9     1     2    1
    10     2     3    2
    11     2     4    1
    12     5     4    1
