@<TRIPOS>MOLECULE
/home/cewinharhar/GITHUB/reincatalyze/data/processed/docking_pred/2023-Apr-25-2248_maxeplen10_maxtrainstep1000_exh16_gamma099_lrac3e-4_lrcr1e-3/98720eda2f8b5e3d73e45599e80051818594e19a_ligand_2.pdbqt
 12 12 0 0 0
SMALL
GASTEIGER

@<TRIPOS>ATOM
      1  C          8.3950   -0.6490   -2.1390 C.3     1  UNL1        0.1270
      2  C          8.4200   -1.9090   -2.9040 C.2     1  UNL1        0.3030
      3  O          9.5200   -2.5030   -3.0690 O.2     1  UNL1       -0.2520
      4  O          7.2600   -2.4730   -3.4540 O.3     1  UNL1       -0.4810
      5  H          6.4730   -1.8670   -3.6480 H       1  UNL1        0.2960
      6  C          7.0140   -0.0190   -2.1150 C.3     1  UNL1        0.0470
      7  C          6.4850    0.0510   -0.7280 C.2     1  UNL1       -0.0470
      8  C          6.6230   -1.0240    0.1380 C.2     1  UNL1        0.0040
      9  C          5.8300    1.1640   -0.2330 C.2     1  UNL1        0.0040
     10  C          6.1360   -0.9940    1.4240 C.2     1  UNL1        0.0000
     11  C          5.3420    1.1930    1.0560 C.2     1  UNL1        0.0000
     12  C          5.4820    0.1220    1.9090 C.2     1  UNL1        0.0000
@<TRIPOS>BOND
     1     5     4    1
     2     4     2    1
     3     3     2    2
     4     2     1    1
     5     1     6    1
     6     6     7    1
     7     7     9    2
     8     7     8    1
     9     9    11    1
    10     8    10    2
    11    11    12    2
    12    10    12    1
