@<TRIPOS>MOLECULE
/home/cewinharhar/GITHUB/reincatalyze/data/processed/docking_pred/2023-Apr-25-2248_maxeplen10_maxtrainstep1000_exh16_gamma099_lrac3e-4_lrcr1e-3/98ce2146f260201d1ebb2f82702d5d512d51d1e1_ligand_2.pdbqt
 12 12 0 0 0
SMALL
GASTEIGER

@<TRIPOS>ATOM
      1  C          7.3640   -1.4640   -2.0380 C.3     1  UNL1        0.1270
      2  C          8.7550   -1.4200   -2.5230 C.2     1  UNL1        0.3030
      3  O          9.4930   -0.4560   -2.1800 O.2     1  UNL1       -0.2520
      4  O          9.2900   -2.4150   -3.3530 O.3     1  UNL1       -0.4810
      5  H          8.6810   -3.1570   -3.6720 H       1  UNL1        0.2960
      6  C          7.2850   -1.4790   -0.5220 C.3     1  UNL1        0.0470
      7  C          6.4720   -0.3410   -0.0200 C.2     1  UNL1       -0.0470
      8  C          6.2030    0.7500   -0.8340 C.2     1  UNL1        0.0040
      9  C          5.9550   -0.2980    1.2620 C.2     1  UNL1        0.0040
     10  C          5.4620    1.8240   -0.3960 C.2     1  UNL1        0.0000
     11  C          5.2130    0.7780    1.6990 C.2     1  UNL1        0.0000
     12  C          4.9520    1.8570    0.8860 C.2     1  UNL1        0.0000
@<TRIPOS>BOND
     1     5     4    1
     2     4     2    1
     3     2     3    2
     4     2     1    1
     5     1     6    1
     6     8    10    1
     7     8     7    2
     8     6     7    1
     9    10    12    2
    10     7     9    1
    11    12    11    1
    12     9    11    2
