MODEL 1
REMARK VINA RESULT:      -7.3      0.000      0.000
REMARK SMILES O=C(O)CCc1ccccc1
REMARK SMILES IDX 4 1 2 2 1 3 3 4 5 6 6 7 7 8 11 9 8 10 10 11 9 12
REMARK H PARENT 3 5
REMARK Flexibility Score: inf
ROOT
ATOM      1  C   UNL     1       8.398  -0.702  -2.055  1.00  0.00     0.127 C 
ENDROOT
BRANCH   1   2
ATOM      2  C   UNL     1       8.391  -1.928  -2.872  1.00  0.00     0.303 C 
ATOM      3  O   UNL     1       7.286  -2.404  -3.252  1.00  0.00    -0.252 OA
BRANCH   2   4
ATOM      4  O   UNL     1       9.572  -2.585  -3.246  1.00  0.00    -0.481 OA
ATOM      5  H   UNL     1      10.121  -2.199  -4.003  1.00  0.00     0.296 HD
ENDBRANCH   2   4
ENDBRANCH   1   2
BRANCH   1   6
ATOM      6  C   UNL     1       7.077   0.043  -2.125  1.00  0.00     0.047 C 
BRANCH   6   7
ATOM      7  C   UNL     1       6.478   0.193  -0.773  1.00  0.00    -0.047 A 
ATOM      8  C   UNL     1       6.616  -0.808   0.178  1.00  0.00     0.004 A 
ATOM      9  C   UNL     1       5.756   1.310  -0.395  1.00  0.00     0.004 A 
ATOM     10  C   UNL     1       6.065  -0.703   1.434  1.00  0.00     0.000 A 
ATOM     11  C   UNL     1       5.204   1.414   0.864  1.00  0.00     0.000 A 
ATOM     12  C   UNL     1       5.344   0.416   1.801  1.00  0.00     0.000 A 
ENDBRANCH   6   7
ENDBRANCH   1   6
TORSDOF 4
ENDMDL
MODEL 2
REMARK VINA RESULT:      -7.2      0.134      1.426
REMARK SMILES O=C(O)CCc1ccccc1
REMARK SMILES IDX 4 1 2 2 1 3 3 4 5 6 6 7 7 8 11 9 8 10 10 11 9 12
REMARK H PARENT 3 5
REMARK Flexibility Score: inf
ROOT
ATOM      1  C   UNL     1       8.398  -0.617  -2.174  1.00  0.00     0.127 C 
ENDROOT
BRANCH   1   2
ATOM      2  C   UNL     1       8.411  -1.906  -2.889  1.00  0.00     0.303 C 
ATOM      3  O   UNL     1       7.315  -2.430  -3.227  1.00  0.00    -0.252 OA
BRANCH   2   4
ATOM      4  O   UNL     1       9.603  -2.571  -3.210  1.00  0.00    -0.481 OA
ATOM      5  H   UNL     1      10.153  -2.968  -2.460  1.00  0.00     0.296 HD
ENDBRANCH   2   4
ENDBRANCH   1   2
BRANCH   1   6
ATOM      6  C   UNL     1       7.018   0.014  -2.155  1.00  0.00     0.047 C 
BRANCH   6   7
ATOM      7  C   UNL     1       6.480   0.075  -0.771  1.00  0.00    -0.047 A 
ATOM      8  C   UNL     1       5.807   1.203  -0.322  1.00  0.00     0.004 A 
ATOM      9  C   UNL     1       6.623  -0.961   0.134  1.00  0.00     0.004 A 
ATOM     10  C   UNL     1       5.306   1.294   0.956  1.00  0.00     0.000 A 
ATOM     11  C   UNL     1       6.120  -0.868   1.414  1.00  0.00     0.000 A 
ATOM     12  C   UNL     1       5.455   0.255   1.852  1.00  0.00     0.000 A 
ENDBRANCH   6   7
ENDBRANCH   1   6
TORSDOF 4
ENDMDL
MODEL 3
REMARK VINA RESULT:      -7.0      0.614      1.479
REMARK SMILES O=C(O)CCc1ccccc1
REMARK SMILES IDX 4 1 2 2 1 3 3 4 5 6 6 7 7 8 11 9 8 10 10 11 9 12
REMARK H PARENT 3 5
REMARK Flexibility Score: inf
ROOT
ATOM      1  C   UNL     1       8.380  -0.837  -1.994  1.00  0.00     0.127 C 
ENDROOT
BRANCH   1   2
ATOM      2  C   UNL     1       8.426  -2.007  -2.890  1.00  0.00     0.303 C 
ATOM      3  O   UNL     1       9.537  -2.554  -3.125  1.00  0.00    -0.252 OA
BRANCH   2   4
ATOM      4  O   UNL     1       7.274  -2.535  -3.490  1.00  0.00    -0.481 OA
ATOM      5  H   UNL     1       6.743  -3.233  -2.986  1.00  0.00     0.296 HD
ENDBRANCH   2   4
ENDBRANCH   1   2
BRANCH   1   6
ATOM      6  C   UNL     1       7.918  -1.204  -0.595  1.00  0.00     0.047 C 
BRANCH   6   7
ATOM      7  C   UNL     1       6.918  -0.227  -0.091  1.00  0.00    -0.047 A 
ATOM      8  C   UNL     1       6.395  -0.346   1.189  1.00  0.00     0.004 A 
ATOM      9  C   UNL     1       6.452   0.828  -0.854  1.00  0.00     0.004 A 
ATOM     10  C   UNL     1       5.461   0.536   1.681  1.00  0.00     0.000 A 
ATOM     11  C   UNL     1       5.516   1.711  -0.359  1.00  0.00     0.000 A 
ATOM     12  C   UNL     1       5.001   1.586   0.911  1.00  0.00     0.000 A 
ENDBRANCH   6   7
ENDBRANCH   1   6
TORSDOF 4
ENDMDL
MODEL 4
REMARK VINA RESULT:      -6.9      1.000      1.934
REMARK SMILES O=C(O)CCc1ccccc1
REMARK SMILES IDX 4 1 2 2 1 3 3 4 5 6 6 7 7 8 11 9 8 10 10 11 9 12
REMARK H PARENT 3 5
REMARK Flexibility Score: inf
ROOT
ATOM      1  C   UNL     1       7.364  -1.464  -2.038  1.00  0.00     0.127 C 
ENDROOT
BRANCH   1   2
ATOM      2  C   UNL     1       8.755  -1.420  -2.523  1.00  0.00     0.303 C 
ATOM      3  O   UNL     1       9.493  -0.456  -2.180  1.00  0.00    -0.252 OA
BRANCH   2   4
ATOM      4  O   UNL     1       9.290  -2.415  -3.353  1.00  0.00    -0.481 OA
ATOM      5  H   UNL     1       8.681  -3.157  -3.672  1.00  0.00     0.296 HD
ENDBRANCH   2   4
ENDBRANCH   1   2
BRANCH   1   6
ATOM      6  C   UNL     1       7.285  -1.479  -0.522  1.00  0.00     0.047 C 
BRANCH   6   7
ATOM      7  C   UNL     1       6.472  -0.341  -0.020  1.00  0.00    -0.047 A 
ATOM      8  C   UNL     1       6.203   0.750  -0.834  1.00  0.00     0.004 A 
ATOM      9  C   UNL     1       5.955  -0.298   1.262  1.00  0.00     0.004 A 
ATOM     10  C   UNL     1       5.462   1.824  -0.396  1.00  0.00     0.000 A 
ATOM     11  C   UNL     1       5.213   0.778   1.699  1.00  0.00     0.000 A 
ATOM     12  C   UNL     1       4.952   1.857   0.886  1.00  0.00     0.000 A 
ENDBRANCH   6   7
ENDBRANCH   1   6
TORSDOF 4
ENDMDL
MODEL 5
REMARK VINA RESULT:      -6.8      3.309      5.159
REMARK SMILES O=C(O)CCc1ccccc1
REMARK SMILES IDX 4 1 2 2 1 3 3 4 5 6 6 7 7 8 11 9 8 10 10 11 9 12
REMARK H PARENT 3 5
REMARK Flexibility Score: inf
ROOT
ATOM      1  C   UNL     1       5.022   1.776   0.716  1.00  0.00     0.127 C 
ENDROOT
BRANCH   1   2
ATOM      2  C   UNL     1       4.487   1.111   1.917  1.00  0.00     0.303 C 
ATOM      3  O   UNL     1       5.168   0.205   2.469  1.00  0.00    -0.252 OA
BRANCH   2   4
ATOM      4  O   UNL     1       3.244   1.452   2.470  1.00  0.00    -0.481 OA
ATOM      5  H   UNL     1       2.421   1.388   1.886  1.00  0.00     0.296 HD
ENDBRANCH   2   4
ENDBRANCH   1   2
BRANCH   1   6
ATOM      6  C   UNL     1       6.537   1.876   0.741  1.00  0.00     0.047 C 
BRANCH   6   7
ATOM      7  C   UNL     1       7.143   1.063  -0.345  1.00  0.00    -0.047 A 
ATOM      8  C   UNL     1       8.490   1.185  -0.654  1.00  0.00     0.004 A 
ATOM      9  C   UNL     1       6.414   0.165  -1.103  1.00  0.00     0.004 A 
ATOM     10  C   UNL     1       9.078   0.455  -1.661  1.00  0.00     0.000 A 
ATOM     11  C   UNL     1       7.005  -0.566  -2.111  1.00  0.00     0.000 A 
ATOM     12  C   UNL     1       8.342  -0.438  -2.412  1.00  0.00     0.000 A 
ENDBRANCH   6   7
ENDBRANCH   1   6
TORSDOF 4
ENDMDL
