@<TRIPOS>MOLECULE
/home/cewinharhar/GITHUB/reincatalyze/data/processed/docking_pred/2023-Apr-25-2248_maxeplen10_maxtrainstep1000_exh16_gamma099_lrac3e-4_lrcr1e-3/98ce2146f260201d1ebb2f82702d5d512d51d1e1_ligand_2.pdbqt
 12 12 0 0 0
SMALL
GASTEIGER

@<TRIPOS>ATOM
      1  C          8.3800   -0.8370   -1.9940 C.3     1  UNL1        0.1270
      2  C          8.4260   -2.0070   -2.8900 C.2     1  UNL1        0.3030
      3  O          9.5370   -2.5540   -3.1250 O.2     1  UNL1       -0.2520
      4  O          7.2740   -2.5350   -3.4900 O.3     1  UNL1       -0.4810
      5  H          6.7430   -3.2330   -2.9860 H       1  UNL1        0.2960
      6  C          7.9180   -1.2040   -0.5950 C.3     1  UNL1        0.0470
      7  C          6.9180   -0.2270   -0.0910 C.2     1  UNL1       -0.0470
      8  C          6.3950   -0.3460    1.1890 C.2     1  UNL1        0.0040
      9  C          6.4520    0.8280   -0.8540 C.2     1  UNL1        0.0040
     10  C          5.4610    0.5360    1.6810 C.2     1  UNL1        0.0000
     11  C          5.5160    1.7110   -0.3590 C.2     1  UNL1        0.0000
     12  C          5.0010    1.5860    0.9110 C.2     1  UNL1        0.0000
@<TRIPOS>BOND
     1     4     5    1
     2     4     2    1
     3     3     2    2
     4     2     1    1
     5     1     6    1
     6     9    11    1
     7     9     7    2
     8     6     7    1
     9    11    12    2
    10     7     8    1
    11    12    10    1
    12     8    10    2
