@<TRIPOS>MOLECULE
/home/cewinharhar/GITHUB/reincatalyze/data/processed/docking_pred/2023-Apr-25-2248_maxeplen10_maxtrainstep1000_exh16_gamma099_lrac3e-4_lrcr1e-3/98ce2146f260201d1ebb2f82702d5d512d51d1e1_ligand_2.pdbqt
 12 12 0 0 0
SMALL
GASTEIGER

@<TRIPOS>ATOM
      1  C          8.3980   -0.7020   -2.0550 C.3     1  UNL1        0.1270
      2  C          8.3910   -1.9280   -2.8720 C.2     1  UNL1        0.3030
      3  O          7.2860   -2.4040   -3.2520 O.2     1  UNL1       -0.2520
      4  O          9.5720   -2.5850   -3.2460 O.3     1  UNL1       -0.4810
      5  H         10.1210   -2.1990   -4.0030 H       1  UNL1        0.2960
      6  C          7.0770    0.0430   -2.1250 C.3     1  UNL1        0.0470
      7  C          6.4780    0.1930   -0.7730 C.2     1  UNL1       -0.0470
      8  C          6.6160   -0.8080    0.1780 C.2     1  UNL1        0.0040
      9  C          5.7560    1.3100   -0.3950 C.2     1  UNL1        0.0040
     10  C          6.0650   -0.7030    1.4340 C.2     1  UNL1        0.0000
     11  C          5.2040    1.4140    0.8640 C.2     1  UNL1        0.0000
     12  C          5.3440    0.4160    1.8010 C.2     1  UNL1        0.0000
@<TRIPOS>BOND
     1     5     4    1
     2     3     2    2
     3     4     2    1
     4     2     1    1
     5     6     1    1
     6     6     7    1
     7     7     9    2
     8     7     8    1
     9     9    11    1
    10     8    10    2
    11    11    12    2
    12    10    12    1
