@<TRIPOS>MOLECULE
/home/cewinharhar/GITHUB/reincatalyze/data/processed/docking_pred/2023-Apr-25-2248_maxeplen10_maxtrainstep1000_exh16_gamma099_lrac3e-4_lrcr1e-3/98ce2146f260201d1ebb2f82702d5d512d51d1e1_ligand_2.pdbqt
 12 12 0 0 0
SMALL
GASTEIGER

@<TRIPOS>ATOM
      1  C          5.0220    1.7760    0.7160 C.3     1  UNL1        0.1270
      2  C          4.4870    1.1110    1.9170 C.2     1  UNL1        0.3030
      3  O          5.1680    0.2050    2.4690 O.2     1  UNL1       -0.2520
      4  O          3.2440    1.4520    2.4700 O.3     1  UNL1       -0.4810
      5  H          2.4210    1.3880    1.8860 H       1  UNL1        0.2960
      6  C          6.5370    1.8760    0.7410 C.3     1  UNL1        0.0470
      7  C          7.1430    1.0630   -0.3450 C.2     1  UNL1       -0.0470
      8  C          8.4900    1.1850   -0.6540 C.2     1  UNL1        0.0040
      9  C          6.4140    0.1650   -1.1030 C.2     1  UNL1        0.0040
     10  C          9.0780    0.4550   -1.6610 C.2     1  UNL1        0.0000
     11  C          7.0050   -0.5660   -2.1110 C.2     1  UNL1        0.0000
     12  C          8.3420   -0.4380   -2.4120 C.2     1  UNL1        0.0000
@<TRIPOS>BOND
     1    12    11    2
     2    12    10    1
     3    11     9    1
     4    10     8    2
     5     9     7    2
     6     8     7    1
     7     7     6    1
     8     1     6    1
     9     1     2    1
    10     5     4    1
    11     2     3    2
    12     2     4    1
