@<TRIPOS>MOLECULE
/home/cewinharhar/GITHUB/reincatalyze/data/processed/docking_pred/2023-Apr-25-2248_maxeplen10_maxtrainstep1000_exh16_gamma099_lrac3e-4_lrcr1e-3/9a7d3f5f853688f06c0e35b58fb12e655ab1ce10_ligand_2.pdbqt
 12 12 0 0 0
SMALL
GASTEIGER

@<TRIPOS>ATOM
      1  C          8.2170   -1.6050    0.9890 C.3     1  UNL1        0.1270
      2  C          8.4960   -2.8340    0.2260 C.2     1  UNL1        0.3030
      3  O          9.1020   -3.7840    0.7940 O.2     1  UNL1       -0.2520
      4  O          8.1110   -2.9870   -1.1140 O.3     1  UNL1       -0.4810
      5  H          7.4620   -3.7260   -1.3490 H       1  UNL1        0.2960
      6  C          6.7420   -1.4540    1.3140 C.3     1  UNL1        0.0470
      7  C          6.2000   -0.1880    0.7540 C.2     1  UNL1       -0.0470
      8  C          5.4210    0.6550    1.5340 C.2     1  UNL1        0.0040
      9  C          6.4260    0.2100   -0.5510 C.2     1  UNL1        0.0040
     10  C          4.8970    1.8280    1.0420 C.2     1  UNL1        0.0000
     11  C          5.9000    1.3860   -1.0420 C.2     1  UNL1        0.0000
     12  C          5.1270    2.2160   -0.2620 C.2     1  UNL1        0.0000
@<TRIPOS>BOND
     1     5     4    1
     2     4     2    1
     3    11     9    1
     4    11    12    2
     5     9     7    2
     6    12    10    1
     7     2     3    2
     8     2     1    1
     9     7     6    1
    10     7     8    1
    11     1     6    1
    12    10     8    2
