@<TRIPOS>MOLECULE
/home/cewinharhar/GITHUB/reincatalyze/data/processed/docking_pred/2023-Apr-25-2248_maxeplen10_maxtrainstep1000_exh16_gamma099_lrac3e-4_lrcr1e-3/9a7d3f5f853688f06c0e35b58fb12e655ab1ce10_ligand_2.pdbqt
 12 12 0 0 0
SMALL
GASTEIGER

@<TRIPOS>ATOM
      1  C          8.4560   -0.7080   -2.0390 C.3     1  UNL1        0.1270
      2  C          8.4290   -1.9370   -2.8520 C.2     1  UNL1        0.3030
      3  O          7.3160   -2.4170   -3.2000 O.2     1  UNL1       -0.2520
      4  O          9.6010   -2.5940   -3.2550 O.3     1  UNL1       -0.4810
      5  H         10.3120   -2.0610   -3.7370 H       1  UNL1        0.2960
      6  C          7.1440    0.0510   -2.1030 C.3     1  UNL1        0.0470
      7  C          6.5180    0.1470   -0.7590 C.2     1  UNL1       -0.0470
      8  C          5.7900    1.2710   -0.3960 C.2     1  UNL1        0.0040
      9  C          6.6300   -0.8500    0.1920 C.2     1  UNL1        0.0040
     10  C          5.2070    1.3950    0.8450 C.2     1  UNL1        0.0000
     11  C          6.0460   -0.7250    1.4340 C.2     1  UNL1        0.0000
     12  C          5.3260    0.3940    1.7870 C.2     1  UNL1        0.0000
@<TRIPOS>BOND
     1     5     4    1
     2     4     2    1
     3     3     2    2
     4     2     1    1
     5     6     1    1
     6     6     7    1
     7     7     8    2
     8     7     9    1
     9     8    10    1
    10     9    11    2
    11    10    12    2
    12    11    12    1
