@<TRIPOS>MOLECULE
/home/cewinharhar/GITHUB/reincatalyze/data/processed/docking_pred/2023-Apr-25-2248_maxeplen10_maxtrainstep1000_exh16_gamma099_lrac3e-4_lrcr1e-3/9a7d3f5f853688f06c0e35b58fb12e655ab1ce10_ligand_2.pdbqt
 12 12 0 0 0
SMALL
GASTEIGER

@<TRIPOS>ATOM
      1  C          8.3040    0.3060   -2.1520 C.3     1  UNL1        0.1270
      2  C          9.4230    0.3870   -1.1970 C.2     1  UNL1        0.3030
      3  O          9.4530   -0.4100   -0.2200 O.2     1  UNL1       -0.2520
      4  O         10.4600    1.3210   -1.3370 O.3     1  UNL1       -0.4810
      5  H         11.4040    1.0320   -1.1150 H       1  UNL1        0.2960
      6  C          7.1420   -0.5050   -1.6080 C.3     1  UNL1        0.0470
      7  C          6.3520    0.2870   -0.6290 C.2     1  UNL1       -0.0470
      8  C          6.1280   -0.1930    0.6540 C.2     1  UNL1        0.0040
      9  C          5.7980    1.5170   -0.9340 C.2     1  UNL1        0.0040
     10  C          5.3930    0.5110    1.5790 C.2     1  UNL1        0.0000
     11  C          5.0620    2.2210   -0.0060 C.2     1  UNL1        0.0000
     12  C          4.8430    1.7380    1.2640 C.2     1  UNL1        0.0000
@<TRIPOS>BOND
     1     1     6    1
     2     1     2    1
     3     6     7    1
     4     4     2    1
     5     4     5    1
     6     2     3    2
     7     9     7    2
     8     9    11    1
     9     7     8    1
    10    11    12    2
    11     8    10    2
    12    12    10    1
