@<TRIPOS>MOLECULE
/home/cewinharhar/GITHUB/reincatalyze/data/processed/docking_pred/2023-Apr-25-2248_maxeplen10_maxtrainstep1000_exh16_gamma099_lrac3e-4_lrcr1e-3/9a7d3f5f853688f06c0e35b58fb12e655ab1ce10_ligand_2.pdbqt
 12 12 0 0 0
SMALL
GASTEIGER

@<TRIPOS>ATOM
      1  C          5.0190    1.7630    0.7380 C.3     1  UNL1        0.1270
      2  C          4.4720    1.0990    1.9350 C.2     1  UNL1        0.3030
      3  O          5.1410    0.1840    2.4880 O.2     1  UNL1       -0.2520
      4  O          3.2290    1.4500    2.4820 O.3     1  UNL1       -0.4810
      5  H          2.3900    1.1770    1.9900 H       1  UNL1        0.2960
      6  C          6.5350    1.8460    0.7710 C.3     1  UNL1        0.0470
      7  C          7.1360    1.0400   -0.3230 C.2     1  UNL1       -0.0470
      8  C          8.4640    1.2170   -0.6850 C.2     1  UNL1        0.0040
      9  C          6.4220    0.0960   -1.0370 C.2     1  UNL1        0.0040
     10  C          9.0470    0.4950   -1.7010 C.2     1  UNL1        0.0000
     11  C          7.0070   -0.6270   -2.0550 C.2     1  UNL1        0.0000
     12  C          8.3250   -0.4450   -2.4080 C.2     1  UNL1        0.0000
@<TRIPOS>BOND
     1    12    11    2
     2    12    10    1
     3    11     9    1
     4    10     8    2
     5     9     7    2
     6     8     7    1
     7     7     6    1
     8     1     6    1
     9     1     2    1
    10     2     4    1
    11     2     3    2
    12     5     4    1
