@<TRIPOS>MOLECULE
/home/cewinharhar/GITHUB/reincatalyze/data/processed/docking_pred/2023-Apr-25-2248_maxeplen10_maxtrainstep1000_exh16_gamma099_lrac3e-4_lrcr1e-3/9a7d3f5f853688f06c0e35b58fb12e655ab1ce10_ligand_2.pdbqt
 12 12 0 0 0
SMALL
GASTEIGER

@<TRIPOS>ATOM
      1  C          8.3930   -0.6540   -2.1300 C.3     1  UNL1        0.1270
      2  C          8.3940   -1.9130   -2.8960 C.2     1  UNL1        0.3030
      3  O          7.2930   -2.4180   -3.2450 O.2     1  UNL1       -0.2520
      4  O          9.5810   -2.5700   -3.2530 O.3     1  UNL1       -0.4810
      5  H          9.5640   -3.2050   -4.0400 H       1  UNL1        0.2960
      6  C          7.0320    0.0190   -2.1340 C.3     1  UNL1        0.0470
      7  C          6.4800    0.1120   -0.7570 C.2     1  UNL1       -0.0470
      8  C          6.6070   -0.9470    0.1300 C.2     1  UNL1        0.0040
      9  C          5.8140    1.2320   -0.2920 C.2     1  UNL1        0.0040
     10  C          6.0980   -0.8960    1.4070 C.2     1  UNL1        0.0000
     11  C          5.3050    1.2820    0.9870 C.2     1  UNL1        0.0000
     12  C          5.4330    0.2260    1.8610 C.2     1  UNL1        0.0000
@<TRIPOS>BOND
     1     5     4    1
     2     4     2    1
     3     3     2    2
     4     2     1    1
     5     6     1    1
     6     6     7    1
     7     7     9    2
     8     7     8    1
     9     9    11    1
    10     8    10    2
    11    11    12    2
    12    10    12    1
