MODEL 1
REMARK VINA RESULT:      -7.3      0.000      0.000
REMARK SMILES O=C(O)CCc1ccccc1
REMARK SMILES IDX 4 1 2 2 1 3 3 4 5 6 6 7 7 8 11 9 8 10 10 11 9 12
REMARK H PARENT 3 5
REMARK Flexibility Score: inf
ROOT
ATOM      1  C   UNL     1       8.456  -0.708  -2.039  1.00  0.00     0.127 C 
ENDROOT
BRANCH   1   2
ATOM      2  C   UNL     1       8.429  -1.937  -2.852  1.00  0.00     0.303 C 
ATOM      3  O   UNL     1       7.316  -2.417  -3.200  1.00  0.00    -0.252 OA
BRANCH   2   4
ATOM      4  O   UNL     1       9.601  -2.594  -3.255  1.00  0.00    -0.481 OA
ATOM      5  H   UNL     1      10.312  -2.061  -3.737  1.00  0.00     0.296 HD
ENDBRANCH   2   4
ENDBRANCH   1   2
BRANCH   1   6
ATOM      6  C   UNL     1       7.144   0.051  -2.103  1.00  0.00     0.047 C 
BRANCH   6   7
ATOM      7  C   UNL     1       6.518   0.147  -0.759  1.00  0.00    -0.047 A 
ATOM      8  C   UNL     1       5.790   1.271  -0.396  1.00  0.00     0.004 A 
ATOM      9  C   UNL     1       6.630  -0.850   0.192  1.00  0.00     0.004 A 
ATOM     10  C   UNL     1       5.207   1.395   0.845  1.00  0.00     0.000 A 
ATOM     11  C   UNL     1       6.046  -0.725   1.434  1.00  0.00     0.000 A 
ATOM     12  C   UNL     1       5.326   0.394   1.787  1.00  0.00     0.000 A 
ENDBRANCH   6   7
ENDBRANCH   1   6
TORSDOF 4
ENDMDL
MODEL 2
REMARK VINA RESULT:      -7.2      0.130      1.424
REMARK SMILES O=C(O)CCc1ccccc1
REMARK SMILES IDX 4 1 2 2 1 3 3 4 5 6 6 7 7 8 11 9 8 10 10 11 9 12
REMARK H PARENT 3 5
REMARK Flexibility Score: inf
ROOT
ATOM      1  C   UNL     1       8.393  -0.654  -2.130  1.00  0.00     0.127 C 
ENDROOT
BRANCH   1   2
ATOM      2  C   UNL     1       8.394  -1.913  -2.896  1.00  0.00     0.303 C 
ATOM      3  O   UNL     1       7.293  -2.418  -3.245  1.00  0.00    -0.252 OA
BRANCH   2   4
ATOM      4  O   UNL     1       9.581  -2.570  -3.253  1.00  0.00    -0.481 OA
ATOM      5  H   UNL     1       9.564  -3.205  -4.040  1.00  0.00     0.296 HD
ENDBRANCH   2   4
ENDBRANCH   1   2
BRANCH   1   6
ATOM      6  C   UNL     1       7.032   0.019  -2.134  1.00  0.00     0.047 C 
BRANCH   6   7
ATOM      7  C   UNL     1       6.480   0.112  -0.757  1.00  0.00    -0.047 A 
ATOM      8  C   UNL     1       6.607  -0.947   0.130  1.00  0.00     0.004 A 
ATOM      9  C   UNL     1       5.814   1.232  -0.292  1.00  0.00     0.004 A 
ATOM     10  C   UNL     1       6.098  -0.896   1.407  1.00  0.00     0.000 A 
ATOM     11  C   UNL     1       5.305   1.282   0.987  1.00  0.00     0.000 A 
ATOM     12  C   UNL     1       5.433   0.226   1.861  1.00  0.00     0.000 A 
ENDBRANCH   6   7
ENDBRANCH   1   6
TORSDOF 4
ENDMDL
MODEL 3
REMARK VINA RESULT:      -6.8      3.306      5.157
REMARK SMILES O=C(O)CCc1ccccc1
REMARK SMILES IDX 4 1 2 2 1 3 3 4 5 6 6 7 7 8 11 9 8 10 10 11 9 12
REMARK H PARENT 3 5
REMARK Flexibility Score: inf
ROOT
ATOM      1  C   UNL     1       5.019   1.763   0.738  1.00  0.00     0.127 C 
ENDROOT
BRANCH   1   2
ATOM      2  C   UNL     1       4.472   1.099   1.935  1.00  0.00     0.303 C 
ATOM      3  O   UNL     1       5.141   0.184   2.488  1.00  0.00    -0.252 OA
BRANCH   2   4
ATOM      4  O   UNL     1       3.229   1.450   2.482  1.00  0.00    -0.481 OA
ATOM      5  H   UNL     1       2.390   1.177   1.990  1.00  0.00     0.296 HD
ENDBRANCH   2   4
ENDBRANCH   1   2
BRANCH   1   6
ATOM      6  C   UNL     1       6.535   1.846   0.771  1.00  0.00     0.047 C 
BRANCH   6   7
ATOM      7  C   UNL     1       7.136   1.040  -0.323  1.00  0.00    -0.047 A 
ATOM      8  C   UNL     1       8.464   1.217  -0.685  1.00  0.00     0.004 A 
ATOM      9  C   UNL     1       6.422   0.096  -1.037  1.00  0.00     0.004 A 
ATOM     10  C   UNL     1       9.047   0.495  -1.701  1.00  0.00     0.000 A 
ATOM     11  C   UNL     1       7.007  -0.627  -2.055  1.00  0.00     0.000 A 
ATOM     12  C   UNL     1       8.325  -0.445  -2.408  1.00  0.00     0.000 A 
ENDBRANCH   6   7
ENDBRANCH   1   6
TORSDOF 4
ENDMDL
MODEL 4
REMARK VINA RESULT:      -6.6      1.941      2.600
REMARK SMILES O=C(O)CCc1ccccc1
REMARK SMILES IDX 4 1 2 2 1 3 3 4 5 6 6 7 7 8 11 9 8 10 10 11 9 12
REMARK H PARENT 3 5
REMARK Flexibility Score: inf
ROOT
ATOM      1  C   UNL     1       8.304   0.306  -2.152  1.00  0.00     0.127 C 
ENDROOT
BRANCH   1   2
ATOM      2  C   UNL     1       9.423   0.387  -1.197  1.00  0.00     0.303 C 
ATOM      3  O   UNL     1       9.453  -0.410  -0.220  1.00  0.00    -0.252 OA
BRANCH   2   4
ATOM      4  O   UNL     1      10.460   1.321  -1.337  1.00  0.00    -0.481 OA
ATOM      5  H   UNL     1      11.404   1.032  -1.115  1.00  0.00     0.296 HD
ENDBRANCH   2   4
ENDBRANCH   1   2
BRANCH   1   6
ATOM      6  C   UNL     1       7.142  -0.505  -1.608  1.00  0.00     0.047 C 
BRANCH   6   7
ATOM      7  C   UNL     1       6.352   0.287  -0.629  1.00  0.00    -0.047 A 
ATOM      8  C   UNL     1       6.128  -0.193   0.654  1.00  0.00     0.004 A 
ATOM      9  C   UNL     1       5.798   1.517  -0.934  1.00  0.00     0.004 A 
ATOM     10  C   UNL     1       5.393   0.511   1.579  1.00  0.00     0.000 A 
ATOM     11  C   UNL     1       5.062   2.221  -0.006  1.00  0.00     0.000 A 
ATOM     12  C   UNL     1       4.843   1.738   1.264  1.00  0.00     0.000 A 
ENDBRANCH   6   7
ENDBRANCH   1   6
TORSDOF 4
ENDMDL
MODEL 5
REMARK VINA RESULT:      -6.6      1.874      2.850
REMARK SMILES O=C(O)CCc1ccccc1
REMARK SMILES IDX 4 1 2 2 1 3 3 4 5 6 6 7 7 8 11 9 8 10 10 11 9 12
REMARK H PARENT 3 5
REMARK Flexibility Score: inf
ROOT
ATOM      1  C   UNL     1       8.217  -1.605   0.989  1.00  0.00     0.127 C 
ENDROOT
BRANCH   1   2
ATOM      2  C   UNL     1       8.496  -2.834   0.226  1.00  0.00     0.303 C 
ATOM      3  O   UNL     1       9.102  -3.784   0.794  1.00  0.00    -0.252 OA
BRANCH   2   4
ATOM      4  O   UNL     1       8.111  -2.987  -1.114  1.00  0.00    -0.481 OA
ATOM      5  H   UNL     1       7.462  -3.726  -1.349  1.00  0.00     0.296 HD
ENDBRANCH   2   4
ENDBRANCH   1   2
BRANCH   1   6
ATOM      6  C   UNL     1       6.742  -1.454   1.314  1.00  0.00     0.047 C 
BRANCH   6   7
ATOM      7  C   UNL     1       6.200  -0.188   0.754  1.00  0.00    -0.047 A 
ATOM      8  C   UNL     1       5.421   0.655   1.534  1.00  0.00     0.004 A 
ATOM      9  C   UNL     1       6.426   0.210  -0.551  1.00  0.00     0.004 A 
ATOM     10  C   UNL     1       4.897   1.828   1.042  1.00  0.00     0.000 A 
ATOM     11  C   UNL     1       5.900   1.386  -1.042  1.00  0.00     0.000 A 
ATOM     12  C   UNL     1       5.127   2.216  -0.262  1.00  0.00     0.000 A 
ENDBRANCH   6   7
ENDBRANCH   1   6
TORSDOF 4
ENDMDL
