@<TRIPOS>MOLECULE
/home/cewinharhar/GITHUB/reincatalyze/data/processed/docking_pred/2023-Apr-25-2248_maxeplen10_maxtrainstep1000_exh16_gamma099_lrac3e-4_lrcr1e-3/9c92d7019ca479aa147a964f0da84773825070a7_ligand_2.pdbqt
 12 12 0 0 0
SMALL
GASTEIGER

@<TRIPOS>ATOM
      1  C          8.2390   -1.0070   -1.7880 C.3     1  UNL1        0.1270
      2  C          8.3820   -2.0360   -2.8330 C.2     1  UNL1        0.3030
      3  O          9.5340   -2.4660   -3.1150 O.2     1  UNL1       -0.2520
      4  O          7.2800   -2.5550   -3.5270 O.3     1  UNL1       -0.4810
      5  H          7.4090   -2.8540   -4.4850 H       1  UNL1        0.2960
      6  C          7.3420   -1.4650   -0.6520 C.3     1  UNL1        0.0470
      7  C          6.5350   -0.3350   -0.1210 C.2     1  UNL1       -0.0470
      8  C          6.0580   -0.3560    1.1820 C.2     1  UNL1        0.0040
      9  C          6.2110    0.7750   -0.8800 C.2     1  UNL1        0.0040
     10  C          5.3010    0.6700    1.6990 C.2     1  UNL1        0.0000
     11  C          5.4520    1.8010   -0.3610 C.2     1  UNL1        0.0000
     12  C          4.9820    1.7730    0.9320 C.2     1  UNL1        0.0000
@<TRIPOS>BOND
     1     5     4    1
     2     4     2    1
     3     3     2    2
     4     2     1    1
     5     1     6    1
     6     9    11    1
     7     9     7    2
     8     6     7    1
     9    11    12    2
    10     7     8    1
    11    12    10    1
    12     8    10    2
