@<TRIPOS>MOLECULE
/home/cewinharhar/GITHUB/reincatalyze/data/processed/docking_pred/2023-Apr-25-2248_maxeplen10_maxtrainstep1000_exh16_gamma099_lrac3e-4_lrcr1e-3/9c92d7019ca479aa147a964f0da84773825070a7_ligand_2.pdbqt
 12 12 0 0 0
SMALL
GASTEIGER

@<TRIPOS>ATOM
      1  C          8.3800   -0.6370   -2.1460 C.3     1  UNL1        0.1270
      2  C          8.3840   -1.9050   -2.8980 C.2     1  UNL1        0.3030
      3  O          7.2840   -2.4090   -3.2540 O.2     1  UNL1       -0.2520
      4  O          9.5710   -2.5710   -3.2350 O.3     1  UNL1       -0.4810
      5  H         10.2750   -2.0700   -3.7590 H       1  UNL1        0.2960
      6  C          7.0130    0.0240   -2.1440 C.3     1  UNL1        0.0470
      7  C          6.4700    0.1190   -0.7640 C.2     1  UNL1       -0.0470
      8  C          6.6140   -0.9350    0.1270 C.2     1  UNL1        0.0040
      9  C          5.7950    1.2330   -0.2990 C.2     1  UNL1        0.0040
     10  C          6.1130   -0.8830    1.4080 C.2     1  UNL1        0.0000
     11  C          5.2940    1.2840    0.9840 C.2     1  UNL1        0.0000
     12  C          5.4400    0.2330    1.8610 C.2     1  UNL1        0.0000
@<TRIPOS>BOND
     1     5     4    1
     2     3     2    2
     3     4     2    1
     4     2     1    1
     5     1     6    1
     6     6     7    1
     7     7     9    2
     8     7     8    1
     9     9    11    1
    10     8    10    2
    11    11    12    2
    12    10    12    1
