@<TRIPOS>MOLECULE
/home/cewinharhar/GITHUB/reincatalyze/data/processed/docking_pred/2023-Apr-25-2248_maxeplen10_maxtrainstep1000_exh16_gamma099_lrac3e-4_lrcr1e-3/9c92d7019ca479aa147a964f0da84773825070a7_ligand_2.pdbqt
 12 12 0 0 0
SMALL
GASTEIGER

@<TRIPOS>ATOM
      1  C          8.2890    0.3550   -1.9910 C.3     1  UNL1        0.1270
      2  C          9.4650    0.4120   -1.1050 C.2     1  UNL1        0.3030
      3  O          9.5270   -0.3710   -0.1180 O.2     1  UNL1       -0.2520
      4  O         10.5210    1.3080   -1.3210 O.3     1  UNL1       -0.4810
      5  H         10.3190    2.1990   -1.7550 H       1  UNL1        0.2960
      6  C          7.2110   -0.5710   -1.4560 C.3     1  UNL1        0.0470
      7  C          6.3940    0.1070   -0.4170 C.2     1  UNL1       -0.0470
      8  C          5.8230    1.3470   -0.6630 C.2     1  UNL1        0.0040
      9  C          6.1670   -0.4410    0.8330 C.2     1  UNL1        0.0040
     10  C          5.0690    2.0060    0.2810 C.2     1  UNL1        0.0000
     11  C          5.4120    0.2200    1.7780 C.2     1  UNL1        0.0000
     12  C          4.8500    1.4510    1.5260 C.2     1  UNL1        0.0000
@<TRIPOS>BOND
     1     1     6    1
     2     1     2    1
     3     5     4    1
     4     6     7    1
     5     4     2    1
     6     2     3    2
     7     8     7    2
     8     8    10    1
     9     7     9    1
    10    10    12    2
    11     9    11    2
    12    12    11    1
