@<TRIPOS>MOLECULE
/home/cewinharhar/GITHUB/reincatalyze/data/processed/docking_pred/2023-Apr-25-2248_maxeplen10_maxtrainstep1000_exh16_gamma099_lrac3e-4_lrcr1e-3/9cf679a9c5542d052f5b9fd38195e755841f8057_ligand_2.pdbqt
 12 12 0 0 0
SMALL
GASTEIGER

@<TRIPOS>ATOM
      1  C          4.9840    1.7700    0.7230 C.3     1  UNL1        0.1270
      2  C          4.4540    1.1080    1.9280 C.2     1  UNL1        0.3030
      3  O          5.1340    0.1990    2.4770 O.2     1  UNL1       -0.2520
      4  O          3.2170    1.4550    2.4890 O.3     1  UNL1       -0.4810
      5  H          2.5330    0.7260    2.6420 H       1  UNL1        0.2960
      6  C          6.4970    1.8900    0.7520 C.3     1  UNL1        0.0470
      7  C          7.1170    1.0830   -0.3300 C.2     1  UNL1       -0.0470
      8  C          8.4600    1.2310   -0.6430 C.2     1  UNL1        0.0040
      9  C          6.4050    0.1640   -1.0800 C.2     1  UNL1        0.0040
     10  C          9.0610    0.5060   -1.6460 C.2     1  UNL1        0.0000
     11  C          7.0090   -0.5620   -2.0840 C.2     1  UNL1        0.0000
     12  C          8.3420   -0.4080   -2.3890 C.2     1  UNL1        0.0000
@<TRIPOS>BOND
     1    12    11    2
     2    12    10    1
     3    11     9    1
     4    10     8    2
     5     9     7    2
     6     8     7    1
     7     7     6    1
     8     1     6    1
     9     1     2    1
    10     2     3    2
    11     2     4    1
    12     4     5    1
