@<TRIPOS>MOLECULE
/home/cewinharhar/GITHUB/reincatalyze/data/processed/docking_pred/2023-Apr-25-2248_maxeplen10_maxtrainstep1000_exh16_gamma099_lrac3e-4_lrcr1e-3/9cf679a9c5542d052f5b9fd38195e755841f8057_ligand_2.pdbqt
 12 12 0 0 0
SMALL
GASTEIGER

@<TRIPOS>ATOM
      1  C          8.1940   -0.9510   -1.8720 C.3     1  UNL1        0.1270
      2  C          8.3680   -2.0270   -2.8630 C.2     1  UNL1        0.3030
      3  O          9.5270   -2.4650   -3.0950 O.2     1  UNL1       -0.2520
      4  O          7.2850   -2.5850   -3.5590 O.3     1  UNL1       -0.4810
      5  H          6.4580   -2.0210   -3.6980 H       1  UNL1        0.2960
      6  C          7.3790   -1.4010   -0.6720 C.3     1  UNL1        0.0470
      7  C          6.5590   -0.2840   -0.1360 C.2     1  UNL1       -0.0470
      8  C          6.0900   -0.3140    1.1700 C.2     1  UNL1        0.0040
      9  C          6.2130    0.8210   -0.8920 C.2     1  UNL1        0.0040
     10  C          5.3190    0.6990    1.6920 C.2     1  UNL1        0.0000
     11  C          5.4410    1.8350   -0.3670 C.2     1  UNL1        0.0000
     12  C          4.9790    1.7980    0.9290 C.2     1  UNL1        0.0000
@<TRIPOS>BOND
     1     5     4    1
     2     4     2    1
     3     3     2    2
     4     2     1    1
     5     1     6    1
     6     9    11    1
     7     9     7    2
     8     6     7    1
     9    11    12    2
    10     7     8    1
    11    12    10    1
    12     8    10    2
