@<TRIPOS>MOLECULE
/home/cewinharhar/GITHUB/reincatalyze/data/processed/docking_pred/2023-Apr-25-2248_maxeplen10_maxtrainstep1000_exh16_gamma099_lrac3e-4_lrcr1e-3/9cf679a9c5542d052f5b9fd38195e755841f8057_ligand_2.pdbqt
 12 12 0 0 0
SMALL
GASTEIGER

@<TRIPOS>ATOM
      1  C          8.4110   -0.6400   -2.1190 C.3     1  UNL1        0.1270
      2  C          8.4510   -1.8960   -2.8890 C.2     1  UNL1        0.3030
      3  O          9.5610   -2.4640   -3.0760 O.2     1  UNL1       -0.2520
      4  O          7.2950   -2.4840   -3.4220 O.3     1  UNL1       -0.4810
      5  H          7.1440   -3.4730   -3.2750 H       1  UNL1        0.2960
      6  C          7.0320   -0.0050   -2.1290 C.3     1  UNL1        0.0470
      7  C          6.4850    0.1010   -0.7510 C.2     1  UNL1       -0.0470
      8  C          6.6100   -0.9520    0.1430 C.2     1  UNL1        0.0040
      9  C          5.8250    1.2270   -0.2930 C.2     1  UNL1        0.0040
     10  C          6.1050   -0.8890    1.4220 C.2     1  UNL1        0.0000
     11  C          5.3200    1.2890    0.9880 C.2     1  UNL1        0.0000
     12  C          5.4470    0.2390    1.8690 C.2     1  UNL1        0.0000
@<TRIPOS>BOND
     1     4     5    1
     2     4     2    1
     3     3     2    2
     4     2     1    1
     5     6     1    1
     6     6     7    1
     7     7     9    2
     8     7     8    1
     9     9    11    1
    10     8    10    2
    11    11    12    2
    12    10    12    1
