@<TRIPOS>MOLECULE
/home/cewinharhar/GITHUB/reincatalyze/data/processed/docking_pred/2023-Apr-25-2248_maxeplen10_maxtrainstep1000_exh16_gamma099_lrac3e-4_lrcr1e-3/9cf679a9c5542d052f5b9fd38195e755841f8057_ligand_2.pdbqt
 12 12 0 0 0
SMALL
GASTEIGER

@<TRIPOS>ATOM
      1  C          8.2810   -1.0240   -1.6930 C.3     1  UNL1        0.1270
      2  C          8.3240   -2.0050   -2.7920 C.2     1  UNL1        0.3030
      3  O          7.2400   -2.3990   -3.3030 O.2     1  UNL1       -0.2520
      4  O          9.5300   -2.5150   -3.2930 O.3     1  UNL1       -0.4810
      5  H          9.6060   -3.5110   -3.4480 H       1  UNL1        0.2960
      6  C          7.4020   -1.4860   -0.5450 C.3     1  UNL1        0.0470
      7  C          6.5560   -0.3740   -0.0400 C.2     1  UNL1       -0.0470
      8  C          6.2370    0.7000   -0.8590 C.2     1  UNL1        0.0040
      9  C          6.0550   -0.3390    1.2480 C.2     1  UNL1        0.0040
     10  C          5.4640    1.7500   -0.4190 C.2     1  UNL1        0.0000
     11  C          5.2820    0.7130    1.6880 C.2     1  UNL1        0.0000
     12  C          4.9710    1.7760    0.8700 C.2     1  UNL1        0.0000
@<TRIPOS>BOND
     1     5     4    1
     2     3     2    2
     3     4     2    1
     4     2     1    1
     5     1     6    1
     6     8    10    1
     7     8     7    2
     8     6     7    1
     9    10    12    2
    10     7     9    1
    11    12    11    1
    12     9    11    2
