@<TRIPOS>MOLECULE
/home/cewinharhar/GITHUB/reincatalyze/data/processed/docking_pred/2023-Apr-25-2248_maxeplen10_maxtrainstep1000_exh16_gamma099_lrac3e-4_lrcr1e-3/9cf679a9c5542d052f5b9fd38195e755841f8057_ligand_2.pdbqt
 12 12 0 0 0
SMALL
GASTEIGER

@<TRIPOS>ATOM
      1  C          8.4100   -0.5830   -2.2480 C.3     1  UNL1        0.1270
      2  C          8.4500   -1.8950   -2.9180 C.2     1  UNL1        0.3030
      3  O          9.5550   -2.4910   -3.0320 O.2     1  UNL1       -0.2520
      4  O          7.2980   -2.5070   -3.4330 O.3     1  UNL1       -0.4810
      5  H          6.8410   -2.0840   -4.2300 H       1  UNL1        0.2960
      6  C          7.0100    0.0040   -2.2180 C.3     1  UNL1        0.0470
      7  C          6.4930    0.0790   -0.8270 C.2     1  UNL1       -0.0470
      8  C          5.8940    1.2380   -0.3560 C.2     1  UNL1        0.0040
      9  C          6.5860   -0.9750    0.0640 C.2     1  UNL1        0.0040
     10  C          5.4150    1.3430    0.9300 C.2     1  UNL1        0.0000
     11  C          6.1060   -0.8690    1.3510 C.2     1  UNL1        0.0000
     12  C          5.5140    0.2850    1.8120 C.2     1  UNL1        0.0000
@<TRIPOS>BOND
     1     5     4    1
     2     4     2    1
     3     3     2    2
     4     2     1    1
     5     1     6    1
     6     6     7    1
     7     7     8    2
     8     7     9    1
     9     8    10    1
    10     9    11    2
    11    10    12    2
    12    11    12    1
