@<TRIPOS>MOLECULE
/home/cewinharhar/GITHUB/reincatalyze/data/processed/docking_pred/2023-Apr-25-2248_maxeplen10_maxtrainstep1000_exh16_gamma099_lrac3e-4_lrcr1e-3/9e6208548f5309b91e7f4e881f40d3475c8e3dc2_ligand_2.pdbqt
 12 12 0 0 0
SMALL
GASTEIGER

@<TRIPOS>ATOM
      1  C          8.2130   -1.5710    1.0710 C.3     1  UNL1        0.1270
      2  C          8.5040   -2.7760    0.2750 C.2     1  UNL1        0.3030
      3  O          9.1400   -3.7250    0.8110 O.2     1  UNL1       -0.2520
      4  O          8.0980   -2.9070   -1.0600 O.3     1  UNL1       -0.4810
      5  H          8.0290   -2.0730   -1.6290 H       1  UNL1        0.2960
      6  C          6.7370   -1.4460    1.4060 C.3     1  UNL1        0.0470
      7  C          6.1680   -0.1930    0.8450 C.2     1  UNL1       -0.0470
      8  C          6.4100    0.1660   -0.4730 C.2     1  UNL1        0.0040
      9  C          5.3900    0.6740    1.5900 C.2     1  UNL1        0.0040
     10  C          5.9060    1.3240   -1.0190 C.2     1  UNL1        0.0000
     11  C          4.8860    1.8340    1.0420 C.2     1  UNL1        0.0000
     12  C          5.1310    2.1840   -0.2670 C.2     1  UNL1        0.0000
@<TRIPOS>BOND
     1     5     4    1
     2     4     2    1
     3    10     8    1
     4    10    12    2
     5     8     7    2
     6    12    11    1
     7     2     3    2
     8     2     1    1
     9     7     6    1
    10     7     9    1
    11    11     9    2
    12     1     6    1
