@<TRIPOS>MOLECULE
/home/cewinharhar/GITHUB/reincatalyze/data/processed/docking_pred/2023-Apr-25-2248_maxeplen10_maxtrainstep1000_exh16_gamma099_lrac3e-4_lrcr1e-3/9e6208548f5309b91e7f4e881f40d3475c8e3dc2_ligand_2.pdbqt
 12 12 0 0 0
SMALL
GASTEIGER

@<TRIPOS>ATOM
      1  C          8.3910   -0.6500   -2.1320 C.3     1  UNL1        0.1270
      2  C          8.4210   -1.9080   -2.8990 C.2     1  UNL1        0.3030
      3  O          9.5220   -2.4990   -3.0640 O.2     1  UNL1       -0.2520
      4  O          7.2630   -2.4730   -3.4530 O.3     1  UNL1       -0.4810
      5  H          6.6950   -3.0760   -2.8740 H       1  UNL1        0.2960
      6  C          7.0090   -0.0230   -2.1100 C.3     1  UNL1        0.0470
      7  C          6.4800    0.0510   -0.7230 C.2     1  UNL1       -0.0470
      8  C          6.6140   -1.0240    0.1440 C.2     1  UNL1        0.0040
      9  C          5.8290    1.1670   -0.2290 C.2     1  UNL1        0.0040
     10  C          6.1260   -0.9900    1.4310 C.2     1  UNL1        0.0000
     11  C          5.3410    1.1990    1.0600 C.2     1  UNL1        0.0000
     12  C          5.4770    0.1280    1.9140 C.2     1  UNL1        0.0000
@<TRIPOS>BOND
     1     4     2    1
     2     4     5    1
     3     3     2    2
     4     2     1    1
     5     1     6    1
     6     6     7    1
     7     7     9    2
     8     7     8    1
     9     9    11    1
    10     8    10    2
    11    11    12    2
    12    10    12    1
