@<TRIPOS>MOLECULE
/home/cewinharhar/GITHUB/reincatalyze/data/processed/docking_pred/2023-Apr-25-2248_maxeplen10_maxtrainstep1000_exh16_gamma099_lrac3e-4_lrcr1e-3/9e6208548f5309b91e7f4e881f40d3475c8e3dc2_ligand_2.pdbqt
 12 12 0 0 0
SMALL
GASTEIGER

@<TRIPOS>ATOM
      1  C          8.3880   -0.5780   -2.2110 C.3     1  UNL1        0.1270
      2  C          8.3910   -1.8780   -2.9050 C.2     1  UNL1        0.3030
      3  O          7.2910   -2.4020   -3.2280 O.2     1  UNL1       -0.2520
      4  O          9.5780   -2.5550   -3.2200 O.3     1  UNL1       -0.4810
      5  H          9.6600   -2.9890   -4.1300 H       1  UNL1        0.2960
      6  C          7.0020    0.0380   -2.1510 C.3     1  UNL1        0.0470
      7  C          6.4910    0.0660   -0.7550 C.2     1  UNL1       -0.0470
      8  C          5.8840    1.2060   -0.2470 C.2     1  UNL1        0.0040
      9  C          6.5980   -1.0130    0.1030 C.2     1  UNL1        0.0040
     10  C          5.4100    1.2670    1.0430 C.2     1  UNL1        0.0000
     11  C          6.1230   -0.9490    1.3950 C.2     1  UNL1        0.0000
     12  C          5.5230    0.1850    1.8920 C.2     1  UNL1        0.0000
@<TRIPOS>BOND
     1     5     4    1
     2     3     2    2
     3     4     2    1
     4     2     1    1
     5     1     6    1
     6     6     7    1
     7     7     8    2
     8     7     9    1
     9     8    10    1
    10     9    11    2
    11    10    12    2
    12    11    12    1
