@<TRIPOS>MOLECULE
/home/cewinharhar/GITHUB/reincatalyze/data/processed/docking_pred/2023-Apr-25-2248_maxeplen10_maxtrainstep1000_exh16_gamma099_lrac3e-4_lrcr1e-3/9e6208548f5309b91e7f4e881f40d3475c8e3dc2_ligand_2.pdbqt
 12 12 0 0 0
SMALL
GASTEIGER

@<TRIPOS>ATOM
      1  C          8.4850    0.6200   -1.6840 C.3     1  UNL1        0.1270
      2  C          9.6420    0.2790   -0.8370 C.2     1  UNL1        0.3030
      3  O          9.4820   -0.5180    0.1270 O.2     1  UNL1       -0.2520
      4  O         10.9200    0.8100   -1.0680 O.3     1  UNL1       -0.4810
      5  H         11.4790    1.0860   -0.2720 H       1  UNL1        0.2960
      6  C          7.3000   -0.2940   -1.4310 C.3     1  UNL1        0.0470
      7  C          6.4130    0.2630   -0.3760 C.2     1  UNL1       -0.0470
      8  C          5.7950    1.4930   -0.5480 C.2     1  UNL1        0.0040
      9  C          6.1650   -0.3930    0.8160 C.2     1  UNL1        0.0040
     10  C          4.9770    2.0400    0.4140 C.2     1  UNL1        0.0000
     11  C          5.3460    0.1560    1.7790 C.2     1  UNL1        0.0000
     12  C          4.7370    1.3780    1.6010 C.2     1  UNL1        0.0000
@<TRIPOS>BOND
     1     1     6    1
     2     1     2    1
     3     6     7    1
     4     4     2    1
     5     4     5    1
     6     2     3    2
     7     8     7    2
     8     8    10    1
     9     7     9    1
    10    10    12    2
    11     9    11    2
    12    12    11    1
