@<TRIPOS>MOLECULE
/home/cewinharhar/GITHUB/reincatalyze/data/processed/docking_pred/2023-Apr-25-2248_maxeplen10_maxtrainstep1000_exh16_gamma099_lrac3e-4_lrcr1e-3/9e6208548f5309b91e7f4e881f40d3475c8e3dc2_ligand_2.pdbqt
 12 12 0 0 0
SMALL
GASTEIGER

@<TRIPOS>ATOM
      1  C          5.0050    1.7870    0.7590 C.3     1  UNL1        0.1270
      2  C          4.4610    1.0990    1.9430 C.2     1  UNL1        0.3030
      3  O          5.1310    0.1730    2.4750 O.2     1  UNL1       -0.2520
      4  O          3.2210    1.4400    2.5020 O.3     1  UNL1       -0.4810
      5  H          2.6140    0.6980    2.8230 H       1  UNL1        0.2960
      6  C          6.5210    1.8650    0.7870 C.3     1  UNL1        0.0470
      7  C          7.1160    1.0730   -0.3210 C.2     1  UNL1       -0.0470
      8  C          8.4540    1.2180   -0.6560 C.2     1  UNL1        0.0040
      9  C          6.3840    0.1720   -1.0730 C.2     1  UNL1        0.0040
     10  C          9.0320    0.5070   -1.6820 C.2     1  UNL1        0.0000
     11  C          6.9640   -0.5400   -2.1010 C.2     1  UNL1        0.0000
     12  C          8.2920   -0.3890   -2.4280 C.2     1  UNL1        0.0000
@<TRIPOS>BOND
     1    12    11    2
     2    12    10    1
     3    11     9    1
     4    10     8    2
     5     9     7    2
     6     8     7    1
     7     7     6    1
     8     1     6    1
     9     1     2    1
    10     2     3    2
    11     2     4    1
    12     4     5    1
