MODEL 1
REMARK VINA RESULT:      -7.3      0.000      0.000
REMARK SMILES O=C(O)CCc1ccccc1
REMARK SMILES IDX 4 1 2 2 1 3 3 4 5 6 6 7 7 8 11 9 8 10 10 11 9 12
REMARK H PARENT 3 5
REMARK Flexibility Score: inf
ROOT
ATOM      1  C   UNL     1       8.391  -0.650  -2.132  1.00  0.00     0.127 C 
ENDROOT
BRANCH   1   2
ATOM      2  C   UNL     1       8.421  -1.908  -2.899  1.00  0.00     0.303 C 
ATOM      3  O   UNL     1       9.522  -2.499  -3.064  1.00  0.00    -0.252 OA
BRANCH   2   4
ATOM      4  O   UNL     1       7.263  -2.473  -3.453  1.00  0.00    -0.481 OA
ATOM      5  H   UNL     1       6.695  -3.076  -2.874  1.00  0.00     0.296 HD
ENDBRANCH   2   4
ENDBRANCH   1   2
BRANCH   1   6
ATOM      6  C   UNL     1       7.009  -0.023  -2.110  1.00  0.00     0.047 C 
BRANCH   6   7
ATOM      7  C   UNL     1       6.480   0.051  -0.723  1.00  0.00    -0.047 A 
ATOM      8  C   UNL     1       6.614  -1.024   0.144  1.00  0.00     0.004 A 
ATOM      9  C   UNL     1       5.829   1.167  -0.229  1.00  0.00     0.004 A 
ATOM     10  C   UNL     1       6.126  -0.990   1.431  1.00  0.00     0.000 A 
ATOM     11  C   UNL     1       5.341   1.199   1.060  1.00  0.00     0.000 A 
ATOM     12  C   UNL     1       5.477   0.128   1.914  1.00  0.00     0.000 A 
ENDBRANCH   6   7
ENDBRANCH   1   6
TORSDOF 4
ENDMDL
MODEL 2
REMARK VINA RESULT:      -7.2      0.110      1.723
REMARK SMILES O=C(O)CCc1ccccc1
REMARK SMILES IDX 4 1 2 2 1 3 3 4 5 6 6 7 7 8 11 9 8 10 10 11 9 12
REMARK H PARENT 3 5
REMARK Flexibility Score: inf
ROOT
ATOM      1  C   UNL     1       8.388  -0.578  -2.211  1.00  0.00     0.127 C 
ENDROOT
BRANCH   1   2
ATOM      2  C   UNL     1       8.391  -1.878  -2.905  1.00  0.00     0.303 C 
ATOM      3  O   UNL     1       7.291  -2.402  -3.228  1.00  0.00    -0.252 OA
BRANCH   2   4
ATOM      4  O   UNL     1       9.578  -2.555  -3.220  1.00  0.00    -0.481 OA
ATOM      5  H   UNL     1       9.660  -2.989  -4.130  1.00  0.00     0.296 HD
ENDBRANCH   2   4
ENDBRANCH   1   2
BRANCH   1   6
ATOM      6  C   UNL     1       7.002   0.038  -2.151  1.00  0.00     0.047 C 
BRANCH   6   7
ATOM      7  C   UNL     1       6.491   0.066  -0.755  1.00  0.00    -0.047 A 
ATOM      8  C   UNL     1       5.884   1.206  -0.247  1.00  0.00     0.004 A 
ATOM      9  C   UNL     1       6.598  -1.013   0.103  1.00  0.00     0.004 A 
ATOM     10  C   UNL     1       5.410   1.267   1.043  1.00  0.00     0.000 A 
ATOM     11  C   UNL     1       6.123  -0.949   1.395  1.00  0.00     0.000 A 
ATOM     12  C   UNL     1       5.523   0.185   1.892  1.00  0.00     0.000 A 
ENDBRANCH   6   7
ENDBRANCH   1   6
TORSDOF 4
ENDMDL
MODEL 3
REMARK VINA RESULT:      -6.8      3.401      5.100
REMARK SMILES O=C(O)CCc1ccccc1
REMARK SMILES IDX 4 1 2 2 1 3 3 4 5 6 6 7 7 8 11 9 8 10 10 11 9 12
REMARK H PARENT 3 5
REMARK Flexibility Score: inf
ROOT
ATOM      1  C   UNL     1       5.005   1.787   0.759  1.00  0.00     0.127 C 
ENDROOT
BRANCH   1   2
ATOM      2  C   UNL     1       4.461   1.099   1.943  1.00  0.00     0.303 C 
ATOM      3  O   UNL     1       5.131   0.173   2.475  1.00  0.00    -0.252 OA
BRANCH   2   4
ATOM      4  O   UNL     1       3.221   1.440   2.502  1.00  0.00    -0.481 OA
ATOM      5  H   UNL     1       2.614   0.698   2.823  1.00  0.00     0.296 HD
ENDBRANCH   2   4
ENDBRANCH   1   2
BRANCH   1   6
ATOM      6  C   UNL     1       6.521   1.865   0.787  1.00  0.00     0.047 C 
BRANCH   6   7
ATOM      7  C   UNL     1       7.116   1.073  -0.321  1.00  0.00    -0.047 A 
ATOM      8  C   UNL     1       8.454   1.218  -0.656  1.00  0.00     0.004 A 
ATOM      9  C   UNL     1       6.384   0.172  -1.073  1.00  0.00     0.004 A 
ATOM     10  C   UNL     1       9.032   0.507  -1.682  1.00  0.00     0.000 A 
ATOM     11  C   UNL     1       6.964  -0.540  -2.101  1.00  0.00     0.000 A 
ATOM     12  C   UNL     1       8.292  -0.389  -2.428  1.00  0.00     0.000 A 
ENDBRANCH   6   7
ENDBRANCH   1   6
TORSDOF 4
ENDMDL
MODEL 4
REMARK VINA RESULT:      -6.6      1.861      2.845
REMARK SMILES O=C(O)CCc1ccccc1
REMARK SMILES IDX 4 1 2 2 1 3 3 4 5 6 6 7 7 8 11 9 8 10 10 11 9 12
REMARK H PARENT 3 5
REMARK Flexibility Score: inf
ROOT
ATOM      1  C   UNL     1       8.213  -1.571   1.071  1.00  0.00     0.127 C 
ENDROOT
BRANCH   1   2
ATOM      2  C   UNL     1       8.504  -2.776   0.275  1.00  0.00     0.303 C 
ATOM      3  O   UNL     1       9.140  -3.725   0.811  1.00  0.00    -0.252 OA
BRANCH   2   4
ATOM      4  O   UNL     1       8.098  -2.907  -1.060  1.00  0.00    -0.481 OA
ATOM      5  H   UNL     1       8.029  -2.073  -1.629  1.00  0.00     0.296 HD
ENDBRANCH   2   4
ENDBRANCH   1   2
BRANCH   1   6
ATOM      6  C   UNL     1       6.737  -1.446   1.406  1.00  0.00     0.047 C 
BRANCH   6   7
ATOM      7  C   UNL     1       6.168  -0.193   0.845  1.00  0.00    -0.047 A 
ATOM      8  C   UNL     1       6.410   0.166  -0.473  1.00  0.00     0.004 A 
ATOM      9  C   UNL     1       5.390   0.674   1.590  1.00  0.00     0.004 A 
ATOM     10  C   UNL     1       5.906   1.324  -1.019  1.00  0.00     0.000 A 
ATOM     11  C   UNL     1       4.886   1.834   1.042  1.00  0.00     0.000 A 
ATOM     12  C   UNL     1       5.131   2.184  -0.267  1.00  0.00     0.000 A 
ENDBRANCH   6   7
ENDBRANCH   1   6
TORSDOF 4
ENDMDL
MODEL 5
REMARK VINA RESULT:      -6.6      2.067      2.756
REMARK SMILES O=C(O)CCc1ccccc1
REMARK SMILES IDX 4 1 2 2 1 3 3 4 5 6 6 7 7 8 11 9 8 10 10 11 9 12
REMARK H PARENT 3 5
REMARK Flexibility Score: inf
ROOT
ATOM      1  C   UNL     1       8.485   0.620  -1.684  1.00  0.00     0.127 C 
ENDROOT
BRANCH   1   2
ATOM      2  C   UNL     1       9.642   0.279  -0.837  1.00  0.00     0.303 C 
ATOM      3  O   UNL     1       9.482  -0.518   0.127  1.00  0.00    -0.252 OA
BRANCH   2   4
ATOM      4  O   UNL     1      10.920   0.810  -1.068  1.00  0.00    -0.481 OA
ATOM      5  H   UNL     1      11.479   1.086  -0.272  1.00  0.00     0.296 HD
ENDBRANCH   2   4
ENDBRANCH   1   2
BRANCH   1   6
ATOM      6  C   UNL     1       7.300  -0.294  -1.431  1.00  0.00     0.047 C 
BRANCH   6   7
ATOM      7  C   UNL     1       6.413   0.263  -0.376  1.00  0.00    -0.047 A 
ATOM      8  C   UNL     1       5.795   1.493  -0.548  1.00  0.00     0.004 A 
ATOM      9  C   UNL     1       6.165  -0.393   0.816  1.00  0.00     0.004 A 
ATOM     10  C   UNL     1       4.977   2.040   0.414  1.00  0.00     0.000 A 
ATOM     11  C   UNL     1       5.346   0.156   1.779  1.00  0.00     0.000 A 
ATOM     12  C   UNL     1       4.737   1.378   1.601  1.00  0.00     0.000 A 
ENDBRANCH   6   7
ENDBRANCH   1   6
TORSDOF 4
ENDMDL
