@<TRIPOS>MOLECULE
/home/cewinharhar/GITHUB/reincatalyze/data/processed/docking_pred/2023-Apr-25-2248_maxeplen10_maxtrainstep1000_exh16_gamma099_lrac3e-4_lrcr1e-3/9fad910e57fbde25b93c61ef9d3287f531a6e420_ligand_2.pdbqt
 12 12 0 0 0
SMALL
GASTEIGER

@<TRIPOS>ATOM
      1  C          5.0050    1.7690    0.7020 C.3     1  UNL1        0.1270
      2  C          4.4870    1.1030    1.9100 C.2     1  UNL1        0.3030
      3  O          5.1800    0.2030    2.4580 O.2     1  UNL1       -0.2520
      4  O          3.2470    1.4360    2.4750 O.3     1  UNL1       -0.4810
      5  H          3.1910    1.5670    3.4760 H       1  UNL1        0.2960
      6  C          6.5160    1.9120    0.7290 C.3     1  UNL1        0.0470
      7  C          7.1470    1.1020   -0.3450 C.2     1  UNL1       -0.0470
      8  C          6.3950    0.2030   -1.0880 C.2     1  UNL1        0.0040
      9  C          8.4920    1.1870   -0.6550 C.2     1  UNL1        0.0040
     10  C          6.9520   -0.5690   -2.0820 C.2     1  UNL1        0.0000
     11  C          9.0480    0.4130   -1.6510 C.2     1  UNL1        0.0000
     12  C          8.2960   -0.4770   -2.3830 C.2     1  UNL1        0.0000
@<TRIPOS>BOND
     1    12    10    2
     2    12    11    1
     3    10     8    1
     4    11     9    2
     5     8     7    2
     6     9     7    1
     7     7     6    1
     8     1     6    1
     9     1     2    1
    10     2     3    2
    11     2     4    1
    12     4     5    1
