@<TRIPOS>MOLECULE
/home/cewinharhar/GITHUB/reincatalyze/data/processed/docking_pred/2023-Apr-25-2248_maxeplen10_maxtrainstep1000_exh16_gamma099_lrac3e-4_lrcr1e-3/9fad910e57fbde25b93c61ef9d3287f531a6e420_ligand_2.pdbqt
 12 12 0 0 0
SMALL
GASTEIGER

@<TRIPOS>ATOM
      1  C          8.4070   -0.6240   -2.1610 C.3     1  UNL1        0.1270
      2  C          8.4250   -1.9040   -2.8900 C.2     1  UNL1        0.3030
      3  O          7.3300   -2.4330   -3.2240 O.2     1  UNL1       -0.2520
      4  O          9.6200   -2.5560   -3.2280 O.3     1  UNL1       -0.4810
      5  H          9.5760   -3.5190   -3.5300 H       1  UNL1        0.2960
      6  C          7.0270    0.0090   -2.1450 C.3     1  UNL1        0.0470
      7  C          6.4850    0.0710   -0.7620 C.2     1  UNL1       -0.0470
      8  C          5.8430    1.2130   -0.3040 C.2     1  UNL1        0.0040
      9  C          6.5960   -0.9770    0.1330 C.2     1  UNL1        0.0040
     10  C          5.3400    1.3060    0.9730 C.2     1  UNL1        0.0000
     11  C          6.0920   -0.8830    1.4130 C.2     1  UNL1        0.0000
     12  C          5.4570    0.2540    1.8600 C.2     1  UNL1        0.0000
@<TRIPOS>BOND
     1     5     4    1
     2     4     2    1
     3     3     2    2
     4     2     1    1
     5     1     6    1
     6     6     7    1
     7     7     8    2
     8     7     9    1
     9     8    10    1
    10     9    11    2
    11    10    12    2
    12    11    12    1
