@<TRIPOS>MOLECULE
/home/cewinharhar/GITHUB/reincatalyze/data/processed/docking_pred/2023-Apr-25-2248_maxeplen10_maxtrainstep1000_exh16_gamma099_lrac3e-4_lrcr1e-3/9fad910e57fbde25b93c61ef9d3287f531a6e420_ligand_2.pdbqt
 12 12 0 0 0
SMALL
GASTEIGER

@<TRIPOS>ATOM
      1  C          8.0780   -1.2960   -1.5250 C.3     1  UNL1        0.1270
      2  C          8.2780   -2.0940   -2.7480 C.2     1  UNL1        0.3030
      3  O          9.4460   -2.4470   -3.0650 O.2     1  UNL1       -0.2520
      4  O          7.2100   -2.4770   -3.5730 O.3     1  UNL1       -0.4810
      5  H          6.8050   -1.7870   -4.1910 H       1  UNL1        0.2960
      6  C          7.2440   -0.0530   -1.7810 C.3     1  UNL1        0.0470
      7  C          6.4550    0.3160   -0.5760 C.2     1  UNL1       -0.0470
      8  C          5.7390    1.5040   -0.5360 C.2     1  UNL1        0.0040
      9  C          6.3980   -0.4800    0.5530 C.2     1  UNL1        0.0040
     10  C          5.0080    1.8790    0.5670 C.2     1  UNL1        0.0000
     11  C          5.6650   -0.1030    1.6580 C.2     1  UNL1        0.0000
     12  C          4.9580    1.0780    1.6910 C.2     1  UNL1        0.0000
@<TRIPOS>BOND
     1     5     4    1
     2     4     2    1
     3     3     2    2
     4     2     1    1
     5     6     1    1
     6     6     7    1
     7     7     8    2
     8     7     9    1
     9     8    10    1
    10     9    11    2
    11    10    12    2
    12    11    12    1
