@<TRIPOS>MOLECULE
/home/cewinharhar/GITHUB/reincatalyze/data/processed/docking_pred/2023-Apr-25-2248_maxeplen10_maxtrainstep1000_exh16_gamma099_lrac3e-4_lrcr1e-3/9fad910e57fbde25b93c61ef9d3287f531a6e420_ligand_2.pdbqt
 12 12 0 0 0
SMALL
GASTEIGER

@<TRIPOS>ATOM
      1  C          8.3730   -0.6810   -2.0700 C.3     1  UNL1        0.1270
      2  C          8.3820   -1.9160   -2.8740 C.2     1  UNL1        0.3030
      3  O          7.2840   -2.4090   -3.2520 O.2     1  UNL1       -0.2520
      4  O          9.5720   -2.5650   -3.2360 O.3     1  UNL1       -0.4810
      5  H          9.5350   -3.2800   -3.9490 H       1  UNL1        0.2960
      6  C          7.0260    0.0180   -2.1090 C.3     1  UNL1        0.0470
      7  C          6.4540    0.1490   -0.7430 C.2     1  UNL1       -0.0470
      8  C          6.5890   -0.8770    0.1820 C.2     1  UNL1        0.0040
      9  C          5.7620    1.2710   -0.3250 C.2     1  UNL1        0.0040
     10  C          6.0620   -0.7900    1.4500 C.2     1  UNL1        0.0000
     11  C          5.2360    1.3560    0.9460 C.2     1  UNL1        0.0000
     12  C          5.3720    0.3340    1.8570 C.2     1  UNL1        0.0000
@<TRIPOS>BOND
     1     5     4    1
     2     3     2    2
     3     4     2    1
     4     2     1    1
     5     6     1    1
     6     6     7    1
     7     7     9    2
     8     7     8    1
     9     9    11    1
    10     8    10    2
    11    11    12    2
    12    10    12    1
