MODEL 1
REMARK VINA RESULT:      -7.3      0.000      0.000
REMARK SMILES O=C(O)CCc1ccccc1
REMARK SMILES IDX 4 1 2 2 1 3 3 4 5 6 6 7 7 8 11 9 8 10 10 11 9 12
REMARK H PARENT 3 5
REMARK Flexibility Score: inf
ROOT
ATOM      1  C   UNL     1       8.373  -0.681  -2.070  1.00  0.00     0.127 C 
ENDROOT
BRANCH   1   2
ATOM      2  C   UNL     1       8.382  -1.916  -2.874  1.00  0.00     0.303 C 
ATOM      3  O   UNL     1       7.284  -2.409  -3.252  1.00  0.00    -0.252 OA
BRANCH   2   4
ATOM      4  O   UNL     1       9.572  -2.565  -3.236  1.00  0.00    -0.481 OA
ATOM      5  H   UNL     1       9.535  -3.280  -3.949  1.00  0.00     0.296 HD
ENDBRANCH   2   4
ENDBRANCH   1   2
BRANCH   1   6
ATOM      6  C   UNL     1       7.026   0.018  -2.109  1.00  0.00     0.047 C 
BRANCH   6   7
ATOM      7  C   UNL     1       6.454   0.149  -0.743  1.00  0.00    -0.047 A 
ATOM      8  C   UNL     1       6.589  -0.877   0.182  1.00  0.00     0.004 A 
ATOM      9  C   UNL     1       5.762   1.271  -0.325  1.00  0.00     0.004 A 
ATOM     10  C   UNL     1       6.062  -0.790   1.450  1.00  0.00     0.000 A 
ATOM     11  C   UNL     1       5.236   1.356   0.946  1.00  0.00     0.000 A 
ATOM     12  C   UNL     1       5.372   0.334   1.857  1.00  0.00     0.000 A 
ENDBRANCH   6   7
ENDBRANCH   1   6
TORSDOF 4
ENDMDL
MODEL 2
REMARK VINA RESULT:      -7.2      0.091      1.423
REMARK SMILES O=C(O)CCc1ccccc1
REMARK SMILES IDX 4 1 2 2 1 3 3 4 5 6 6 7 7 8 11 9 8 10 10 11 9 12
REMARK H PARENT 3 5
REMARK Flexibility Score: inf
ROOT
ATOM      1  C   UNL     1       8.407  -0.624  -2.161  1.00  0.00     0.127 C 
ENDROOT
BRANCH   1   2
ATOM      2  C   UNL     1       8.425  -1.904  -2.890  1.00  0.00     0.303 C 
ATOM      3  O   UNL     1       7.330  -2.433  -3.224  1.00  0.00    -0.252 OA
BRANCH   2   4
ATOM      4  O   UNL     1       9.620  -2.556  -3.228  1.00  0.00    -0.481 OA
ATOM      5  H   UNL     1       9.576  -3.519  -3.530  1.00  0.00     0.296 HD
ENDBRANCH   2   4
ENDBRANCH   1   2
BRANCH   1   6
ATOM      6  C   UNL     1       7.027   0.009  -2.145  1.00  0.00     0.047 C 
BRANCH   6   7
ATOM      7  C   UNL     1       6.485   0.071  -0.762  1.00  0.00    -0.047 A 
ATOM      8  C   UNL     1       5.843   1.213  -0.304  1.00  0.00     0.004 A 
ATOM      9  C   UNL     1       6.596  -0.977   0.133  1.00  0.00     0.004 A 
ATOM     10  C   UNL     1       5.340   1.306   0.973  1.00  0.00     0.000 A 
ATOM     11  C   UNL     1       6.092  -0.883   1.413  1.00  0.00     0.000 A 
ATOM     12  C   UNL     1       5.457   0.254   1.860  1.00  0.00     0.000 A 
ENDBRANCH   6   7
ENDBRANCH   1   6
TORSDOF 4
ENDMDL
MODEL 3
REMARK VINA RESULT:      -7.1      0.534      1.788
REMARK SMILES O=C(O)CCc1ccccc1
REMARK SMILES IDX 4 1 2 2 1 3 3 4 5 6 6 7 7 8 11 9 8 10 10 11 9 12
REMARK H PARENT 3 5
REMARK Flexibility Score: inf
ROOT
ATOM      1  C   UNL     1       8.078  -1.296  -1.525  1.00  0.00     0.127 C 
ENDROOT
BRANCH   1   2
ATOM      2  C   UNL     1       8.278  -2.094  -2.748  1.00  0.00     0.303 C 
ATOM      3  O   UNL     1       9.446  -2.447  -3.065  1.00  0.00    -0.252 OA
BRANCH   2   4
ATOM      4  O   UNL     1       7.210  -2.477  -3.573  1.00  0.00    -0.481 OA
ATOM      5  H   UNL     1       6.805  -1.787  -4.191  1.00  0.00     0.296 HD
ENDBRANCH   2   4
ENDBRANCH   1   2
BRANCH   1   6
ATOM      6  C   UNL     1       7.244  -0.053  -1.781  1.00  0.00     0.047 C 
BRANCH   6   7
ATOM      7  C   UNL     1       6.455   0.316  -0.576  1.00  0.00    -0.047 A 
ATOM      8  C   UNL     1       5.739   1.504  -0.536  1.00  0.00     0.004 A 
ATOM      9  C   UNL     1       6.398  -0.480   0.553  1.00  0.00     0.004 A 
ATOM     10  C   UNL     1       5.008   1.879   0.567  1.00  0.00     0.000 A 
ATOM     11  C   UNL     1       5.665  -0.103   1.658  1.00  0.00     0.000 A 
ATOM     12  C   UNL     1       4.958   1.078   1.691  1.00  0.00     0.000 A 
ENDBRANCH   6   7
ENDBRANCH   1   6
TORSDOF 4
ENDMDL
MODEL 4
REMARK VINA RESULT:      -6.8      3.312      5.145
REMARK SMILES O=C(O)CCc1ccccc1
REMARK SMILES IDX 4 1 2 2 1 3 3 4 5 6 6 7 7 8 11 9 8 10 10 11 9 12
REMARK H PARENT 3 5
REMARK Flexibility Score: inf
ROOT
ATOM      1  C   UNL     1       5.005   1.769   0.702  1.00  0.00     0.127 C 
ENDROOT
BRANCH   1   2
ATOM      2  C   UNL     1       4.487   1.103   1.910  1.00  0.00     0.303 C 
ATOM      3  O   UNL     1       5.180   0.203   2.458  1.00  0.00    -0.252 OA
BRANCH   2   4
ATOM      4  O   UNL     1       3.247   1.436   2.475  1.00  0.00    -0.481 OA
ATOM      5  H   UNL     1       3.191   1.567   3.476  1.00  0.00     0.296 HD
ENDBRANCH   2   4
ENDBRANCH   1   2
BRANCH   1   6
ATOM      6  C   UNL     1       6.516   1.912   0.729  1.00  0.00     0.047 C 
BRANCH   6   7
ATOM      7  C   UNL     1       7.147   1.102  -0.345  1.00  0.00    -0.047 A 
ATOM      8  C   UNL     1       6.395   0.203  -1.088  1.00  0.00     0.004 A 
ATOM      9  C   UNL     1       8.492   1.187  -0.655  1.00  0.00     0.004 A 
ATOM     10  C   UNL     1       6.952  -0.569  -2.082  1.00  0.00     0.000 A 
ATOM     11  C   UNL     1       9.048   0.413  -1.651  1.00  0.00     0.000 A 
ATOM     12  C   UNL     1       8.296  -0.477  -2.383  1.00  0.00     0.000 A 
ENDBRANCH   6   7
ENDBRANCH   1   6
TORSDOF 4
ENDMDL
MODEL 5
REMARK VINA RESULT:      -6.6      1.897      2.902
REMARK SMILES O=C(O)CCc1ccccc1
REMARK SMILES IDX 4 1 2 2 1 3 3 4 5 6 6 7 7 8 11 9 8 10 10 11 9 12
REMARK H PARENT 3 5
REMARK Flexibility Score: inf
ROOT
ATOM      1  C   UNL     1       8.216  -1.651   1.079  1.00  0.00     0.127 C 
ENDROOT
BRANCH   1   2
ATOM      2  C   UNL     1       8.521  -2.859   0.291  1.00  0.00     0.303 C 
ATOM      3  O   UNL     1       9.182  -3.789   0.828  1.00  0.00    -0.252 OA
BRANCH   2   4
ATOM      4  O   UNL     1       8.099  -3.012  -1.037  1.00  0.00    -0.481 OA
ATOM      5  H   UNL     1       8.646  -2.582  -1.771  1.00  0.00     0.296 HD
ENDBRANCH   2   4
ENDBRANCH   1   2
BRANCH   1   6
ATOM      6  C   UNL     1       6.735  -1.530   1.394  1.00  0.00     0.047 C 
BRANCH   6   7
ATOM      7  C   UNL     1       6.178  -0.262   0.854  1.00  0.00    -0.047 A 
ATOM      8  C   UNL     1       6.438   0.126  -0.452  1.00  0.00     0.004 A 
ATOM      9  C   UNL     1       5.394   0.591   1.609  1.00  0.00     0.004 A 
ATOM     10  C   UNL     1       5.945   1.298  -0.977  1.00  0.00     0.000 A 
ATOM     11  C   UNL     1       4.902   1.765   1.081  1.00  0.00     0.000 A 
ATOM     12  C   UNL     1       5.165   2.144  -0.216  1.00  0.00     0.000 A 
ENDBRANCH   6   7
ENDBRANCH   1   6
TORSDOF 4
ENDMDL
