@<TRIPOS>MOLECULE
/home/cewinharhar/GITHUB/reincatalyze/data/processed/docking_pred/2023-Apr-25-2248_maxeplen10_maxtrainstep1000_exh16_gamma099_lrac3e-4_lrcr1e-3/9fad910e57fbde25b93c61ef9d3287f531a6e420_ligand_2.pdbqt
 12 12 0 0 0
SMALL
GASTEIGER

@<TRIPOS>ATOM
      1  C          8.2160   -1.6510    1.0790 C.3     1  UNL1        0.1270
      2  C          8.5210   -2.8590    0.2910 C.2     1  UNL1        0.3030
      3  O          9.1820   -3.7890    0.8280 O.2     1  UNL1       -0.2520
      4  O          8.0990   -3.0120   -1.0370 O.3     1  UNL1       -0.4810
      5  H          8.6460   -2.5820   -1.7710 H       1  UNL1        0.2960
      6  C          6.7350   -1.5300    1.3940 C.3     1  UNL1        0.0470
      7  C          6.1780   -0.2620    0.8540 C.2     1  UNL1       -0.0470
      8  C          6.4380    0.1260   -0.4520 C.2     1  UNL1        0.0040
      9  C          5.3940    0.5910    1.6090 C.2     1  UNL1        0.0040
     10  C          5.9450    1.2980   -0.9770 C.2     1  UNL1        0.0000
     11  C          4.9020    1.7650    1.0810 C.2     1  UNL1        0.0000
     12  C          5.1650    2.1440   -0.2160 C.2     1  UNL1        0.0000
@<TRIPOS>BOND
     1     5     4    1
     2     4     2    1
     3    10     8    1
     4    10    12    2
     5     8     7    2
     6    12    11    1
     7     2     3    2
     8     2     1    1
     9     7     6    1
    10     7     9    1
    11     1     6    1
    12    11     9    2
