@<TRIPOS>MOLECULE
/home/cewinharhar/GITHUB/reincatalyze/data/processed/docking_pred/2023-Apr-25-2248_maxeplen10_maxtrainstep1000_exh16_gamma099_lrac3e-4_lrcr1e-3/a1c3c4a97d6bd518e48ffa0772dda1f342f6565e_ligand_2.pdbqt
 12 12 0 0 0
SMALL
GASTEIGER

@<TRIPOS>ATOM
      1  C          8.3970   -0.6700   -2.1070 C.3     1  UNL1        0.1270
      2  C          8.4240   -1.9190   -2.8890 C.2     1  UNL1        0.3030
      3  O          9.5250   -2.5080   -3.0660 O.2     1  UNL1       -0.2520
      4  O          7.2640   -2.4780   -3.4450 O.3     1  UNL1       -0.4810
      5  H          7.3620   -3.2250   -4.1190 H       1  UNL1        0.2960
      6  C          7.0240   -0.0220   -2.1060 C.3     1  UNL1        0.0470
      7  C          6.4820    0.0750   -0.7260 C.2     1  UNL1       -0.0470
      8  C          6.5990   -0.9890    0.1570 C.2     1  UNL1        0.0040
      9  C          5.8350    1.2020   -0.2540 C.2     1  UNL1        0.0040
     10  C          6.0990   -0.9340    1.4380 C.2     1  UNL1        0.0000
     11  C          5.3340    1.2560    1.0290 C.2     1  UNL1        0.0000
     12  C          5.4530    0.1950    1.8990 C.2     1  UNL1        0.0000
@<TRIPOS>BOND
     1     5     4    1
     2     4     2    1
     3     3     2    2
     4     2     1    1
     5     1     6    1
     6     6     7    1
     7     7     9    2
     8     7     8    1
     9     9    11    1
    10     8    10    2
    11    11    12    2
    12    10    12    1
