@<TRIPOS>MOLECULE
/home/cewinharhar/GITHUB/reincatalyze/data/processed/docking_pred/2023-Apr-25-2248_maxeplen10_maxtrainstep1000_exh16_gamma099_lrac3e-4_lrcr1e-3/a1c3c4a97d6bd518e48ffa0772dda1f342f6565e_ligand_2.pdbqt
 12 12 0 0 0
SMALL
GASTEIGER

@<TRIPOS>ATOM
      1  C          8.3870   -0.6310   -2.1590 C.3     1  UNL1        0.1270
      2  C          8.3930   -1.9050   -2.8980 C.2     1  UNL1        0.3030
      3  O          7.2940   -2.4140   -3.2510 O.2     1  UNL1       -0.2520
      4  O          9.5810   -2.5740   -3.2270 O.3     1  UNL1       -0.4810
      5  H         10.2930   -2.0700   -3.7400 H       1  UNL1        0.2960
      6  C          7.0130    0.0150   -2.1390 C.3     1  UNL1        0.0470
      7  C          6.4730    0.0770   -0.7550 C.2     1  UNL1       -0.0470
      8  C          5.8020    1.2060   -0.3080 C.2     1  UNL1        0.0040
      9  C          6.6140   -0.9590    0.1500 C.2     1  UNL1        0.0040
     10  C          5.2990    1.2980    0.9700 C.2     1  UNL1        0.0000
     11  C          6.1110   -0.8650    1.4300 C.2     1  UNL1        0.0000
     12  C          5.4460    0.2590    1.8670 C.2     1  UNL1        0.0000
@<TRIPOS>BOND
     1     5     4    1
     2     3     2    2
     3     4     2    1
     4     2     1    1
     5     1     6    1
     6     6     7    1
     7     7     8    2
     8     7     9    1
     9     8    10    1
    10     9    11    2
    11    10    12    2
    12    11    12    1
