@<TRIPOS>MOLECULE
/home/cewinharhar/GITHUB/reincatalyze/data/processed/docking_pred/2023-Apr-25-2248_maxeplen10_maxtrainstep1000_exh16_gamma099_lrac3e-4_lrcr1e-3/a1c3c4a97d6bd518e48ffa0772dda1f342f6565e_ligand_2.pdbqt
 12 12 0 0 0
SMALL
GASTEIGER

@<TRIPOS>ATOM
      1  C          5.0010    1.7490    0.6900 C.3     1  UNL1        0.1270
      2  C          4.5780    1.0590    1.9210 C.2     1  UNL1        0.3030
      3  O          3.4530    1.3330    2.4210 O.2     1  UNL1       -0.2520
      4  O          5.3850    0.1050    2.5580 O.3     1  UNL1       -0.4810
      5  H          5.1350   -0.1940    3.4910 H       1  UNL1        0.2960
      6  C          6.4990    1.9950    0.6550 C.3     1  UNL1        0.0470
      7  C          7.1500    1.1640   -0.3920 C.2     1  UNL1       -0.0470
      8  C          6.4030    0.2920   -1.1700 C.2     1  UNL1        0.0040
      9  C          8.5100    1.2020   -0.6390 C.2     1  UNL1        0.0040
     10  C          6.9770   -0.4980   -2.1390 C.2     1  UNL1        0.0000
     11  C          9.0840    0.4110   -1.6100 C.2     1  UNL1        0.0000
     12  C          8.3360   -0.4530   -2.3770 C.2     1  UNL1        0.0000
@<TRIPOS>BOND
     1    12    10    2
     2    12    11    1
     3    10     8    1
     4    11     9    2
     5     8     7    2
     6     9     7    1
     7     7     6    1
     8     6     1    1
     9     1     2    1
    10     2     3    2
    11     2     4    1
    12     4     5    1
