MODEL 1
REMARK VINA RESULT:      -7.3      0.000      0.000
REMARK SMILES O=C(O)CCc1ccccc1
REMARK SMILES IDX 4 1 2 2 1 3 3 4 5 6 6 7 7 8 11 9 8 10 10 11 9 12
REMARK H PARENT 3 5
REMARK Flexibility Score: inf
ROOT
ATOM      1  C   UNL     1       8.397  -0.670  -2.107  1.00  0.00     0.127 C 
ENDROOT
BRANCH   1   2
ATOM      2  C   UNL     1       8.424  -1.919  -2.889  1.00  0.00     0.303 C 
ATOM      3  O   UNL     1       9.525  -2.508  -3.066  1.00  0.00    -0.252 OA
BRANCH   2   4
ATOM      4  O   UNL     1       7.264  -2.478  -3.445  1.00  0.00    -0.481 OA
ATOM      5  H   UNL     1       7.362  -3.225  -4.119  1.00  0.00     0.296 HD
ENDBRANCH   2   4
ENDBRANCH   1   2
BRANCH   1   6
ATOM      6  C   UNL     1       7.024  -0.022  -2.106  1.00  0.00     0.047 C 
BRANCH   6   7
ATOM      7  C   UNL     1       6.482   0.075  -0.726  1.00  0.00    -0.047 A 
ATOM      8  C   UNL     1       6.599  -0.989   0.157  1.00  0.00     0.004 A 
ATOM      9  C   UNL     1       5.835   1.202  -0.254  1.00  0.00     0.004 A 
ATOM     10  C   UNL     1       6.099  -0.934   1.438  1.00  0.00     0.000 A 
ATOM     11  C   UNL     1       5.334   1.256   1.029  1.00  0.00     0.000 A 
ATOM     12  C   UNL     1       5.453   0.195   1.899  1.00  0.00     0.000 A 
ENDBRANCH   6   7
ENDBRANCH   1   6
TORSDOF 4
ENDMDL
MODEL 2
REMARK VINA RESULT:      -7.2      0.099      1.723
REMARK SMILES O=C(O)CCc1ccccc1
REMARK SMILES IDX 4 1 2 2 1 3 3 4 5 6 6 7 7 8 11 9 8 10 10 11 9 12
REMARK H PARENT 3 5
REMARK Flexibility Score: inf
ROOT
ATOM      1  C   UNL     1       8.387  -0.631  -2.159  1.00  0.00     0.127 C 
ENDROOT
BRANCH   1   2
ATOM      2  C   UNL     1       8.393  -1.905  -2.898  1.00  0.00     0.303 C 
ATOM      3  O   UNL     1       7.294  -2.414  -3.251  1.00  0.00    -0.252 OA
BRANCH   2   4
ATOM      4  O   UNL     1       9.581  -2.574  -3.227  1.00  0.00    -0.481 OA
ATOM      5  H   UNL     1      10.293  -2.070  -3.740  1.00  0.00     0.296 HD
ENDBRANCH   2   4
ENDBRANCH   1   2
BRANCH   1   6
ATOM      6  C   UNL     1       7.013   0.015  -2.139  1.00  0.00     0.047 C 
BRANCH   6   7
ATOM      7  C   UNL     1       6.473   0.077  -0.755  1.00  0.00    -0.047 A 
ATOM      8  C   UNL     1       5.802   1.206  -0.308  1.00  0.00     0.004 A 
ATOM      9  C   UNL     1       6.614  -0.959   0.150  1.00  0.00     0.004 A 
ATOM     10  C   UNL     1       5.299   1.298   0.970  1.00  0.00     0.000 A 
ATOM     11  C   UNL     1       6.111  -0.865   1.430  1.00  0.00     0.000 A 
ATOM     12  C   UNL     1       5.446   0.259   1.867  1.00  0.00     0.000 A 
ENDBRANCH   6   7
ENDBRANCH   1   6
TORSDOF 4
ENDMDL
MODEL 3
REMARK VINA RESULT:      -7.0      0.649      1.898
REMARK SMILES O=C(O)CCc1ccccc1
REMARK SMILES IDX 4 1 2 2 1 3 3 4 5 6 6 7 7 8 11 9 8 10 10 11 9 12
REMARK H PARENT 3 5
REMARK Flexibility Score: inf
ROOT
ATOM      1  C   UNL     1       8.084  -0.866  -1.961  1.00  0.00     0.127 C 
ENDROOT
BRANCH   1   2
ATOM      2  C   UNL     1       8.230  -1.980  -2.915  1.00  0.00     0.303 C 
ATOM      3  O   UNL     1       7.200  -2.449  -3.471  1.00  0.00    -0.252 OA
BRANCH   2   4
ATOM      4  O   UNL     1       9.477  -2.539  -3.227  1.00  0.00    -0.481 OA
ATOM      5  H   UNL     1      10.178  -1.948  -3.654  1.00  0.00     0.296 HD
ENDBRANCH   2   4
ENDBRANCH   1   2
BRANCH   1   6
ATOM      6  C   UNL     1       7.528  -1.324  -0.624  1.00  0.00     0.047 C 
BRANCH   6   7
ATOM      7  C   UNL     1       6.615  -0.302  -0.049  1.00  0.00    -0.047 A 
ATOM      8  C   UNL     1       6.238   0.808  -0.791  1.00  0.00     0.004 A 
ATOM      9  C   UNL     1       6.106  -0.391   1.234  1.00  0.00     0.004 A 
ATOM     10  C   UNL     1       5.403   1.777  -0.283  1.00  0.00     0.000 A 
ATOM     11  C   UNL     1       5.270   0.580   1.741  1.00  0.00     0.000 A 
ATOM     12  C   UNL     1       4.901   1.680   0.999  1.00  0.00     0.000 A 
ENDBRANCH   6   7
ENDBRANCH   1   6
TORSDOF 4
ENDMDL
MODEL 4
REMARK VINA RESULT:      -6.8      3.395      5.098
REMARK SMILES O=C(O)CCc1ccccc1
REMARK SMILES IDX 4 1 2 2 1 3 3 4 5 6 6 7 7 8 11 9 8 10 10 11 9 12
REMARK H PARENT 3 5
REMARK Flexibility Score: inf
ROOT
ATOM      1  C   UNL     1       5.015   1.786   0.744  1.00  0.00     0.127 C 
ENDROOT
BRANCH   1   2
ATOM      2  C   UNL     1       4.471   1.108   1.934  1.00  0.00     0.303 C 
ATOM      3  O   UNL     1       5.145   0.191   2.478  1.00  0.00    -0.252 OA
BRANCH   2   4
ATOM      4  O   UNL     1       3.228   1.448   2.485  1.00  0.00    -0.481 OA
ATOM      5  H   UNL     1       2.402   0.975   2.144  1.00  0.00     0.296 HD
ENDBRANCH   2   4
ENDBRANCH   1   2
BRANCH   1   6
ATOM      6  C   UNL     1       6.531   1.867   0.773  1.00  0.00     0.047 C 
BRANCH   6   7
ATOM      7  C   UNL     1       7.128   1.060  -0.323  1.00  0.00    -0.047 A 
ATOM      8  C   UNL     1       8.462   1.217  -0.672  1.00  0.00     0.004 A 
ATOM      9  C   UNL     1       6.404   0.134  -1.051  1.00  0.00     0.004 A 
ATOM     10  C   UNL     1       9.042   0.493  -1.688  1.00  0.00     0.000 A 
ATOM     11  C   UNL     1       6.986  -0.590  -2.069  1.00  0.00     0.000 A 
ATOM     12  C   UNL     1       8.310  -0.428  -2.410  1.00  0.00     0.000 A 
ENDBRANCH   6   7
ENDBRANCH   1   6
TORSDOF 4
ENDMDL
MODEL 5
REMARK VINA RESULT:      -6.6      3.345      5.107
REMARK SMILES O=C(O)CCc1ccccc1
REMARK SMILES IDX 4 1 2 2 1 3 3 4 5 6 6 7 7 8 11 9 8 10 10 11 9 12
REMARK H PARENT 3 5
REMARK Flexibility Score: inf
ROOT
ATOM      1  C   UNL     1       5.001   1.749   0.690  1.00  0.00     0.127 C 
ENDROOT
BRANCH   1   2
ATOM      2  C   UNL     1       4.578   1.059   1.921  1.00  0.00     0.303 C 
ATOM      3  O   UNL     1       3.453   1.333   2.421  1.00  0.00    -0.252 OA
BRANCH   2   4
ATOM      4  O   UNL     1       5.385   0.105   2.558  1.00  0.00    -0.481 OA
ATOM      5  H   UNL     1       5.135  -0.194   3.491  1.00  0.00     0.296 HD
ENDBRANCH   2   4
ENDBRANCH   1   2
BRANCH   1   6
ATOM      6  C   UNL     1       6.499   1.995   0.655  1.00  0.00     0.047 C 
BRANCH   6   7
ATOM      7  C   UNL     1       7.150   1.164  -0.392  1.00  0.00    -0.047 A 
ATOM      8  C   UNL     1       6.403   0.292  -1.170  1.00  0.00     0.004 A 
ATOM      9  C   UNL     1       8.510   1.202  -0.639  1.00  0.00     0.004 A 
ATOM     10  C   UNL     1       6.977  -0.498  -2.139  1.00  0.00     0.000 A 
ATOM     11  C   UNL     1       9.084   0.411  -1.610  1.00  0.00     0.000 A 
ATOM     12  C   UNL     1       8.336  -0.453  -2.377  1.00  0.00     0.000 A 
ENDBRANCH   6   7
ENDBRANCH   1   6
TORSDOF 4
ENDMDL
