@<TRIPOS>MOLECULE
/home/cewinharhar/GITHUB/reincatalyze/data/processed/docking_pred/2023-Apr-25-2248_maxeplen10_maxtrainstep1000_exh16_gamma099_lrac3e-4_lrcr1e-3/a1c3c4a97d6bd518e48ffa0772dda1f342f6565e_ligand_2.pdbqt
 12 12 0 0 0
SMALL
GASTEIGER

@<TRIPOS>ATOM
      1  C          5.0150    1.7860    0.7440 C.3     1  UNL1        0.1270
      2  C          4.4710    1.1080    1.9340 C.2     1  UNL1        0.3030
      3  O          5.1450    0.1910    2.4780 O.2     1  UNL1       -0.2520
      4  O          3.2280    1.4480    2.4850 O.3     1  UNL1       -0.4810
      5  H          2.4020    0.9750    2.1440 H       1  UNL1        0.2960
      6  C          6.5310    1.8670    0.7730 C.3     1  UNL1        0.0470
      7  C          7.1280    1.0600   -0.3230 C.2     1  UNL1       -0.0470
      8  C          8.4620    1.2170   -0.6720 C.2     1  UNL1        0.0040
      9  C          6.4040    0.1340   -1.0510 C.2     1  UNL1        0.0040
     10  C          9.0420    0.4930   -1.6880 C.2     1  UNL1        0.0000
     11  C          6.9860   -0.5900   -2.0690 C.2     1  UNL1        0.0000
     12  C          8.3100   -0.4280   -2.4100 C.2     1  UNL1        0.0000
@<TRIPOS>BOND
     1    12    11    2
     2    12    10    1
     3    11     9    1
     4    10     8    2
     5     9     7    2
     6     8     7    1
     7     7     6    1
     8     1     6    1
     9     1     2    1
    10     2     3    2
    11     2     4    1
    12     5     4    1
