@<TRIPOS>MOLECULE
/home/cewinharhar/GITHUB/reincatalyze/data/processed/docking_pred/2023-Apr-25-2248_maxeplen10_maxtrainstep1000_exh16_gamma099_lrac3e-4_lrcr1e-3/a1c3c4a97d6bd518e48ffa0772dda1f342f6565e_ligand_2.pdbqt
 12 12 0 0 0
SMALL
GASTEIGER

@<TRIPOS>ATOM
      1  C          8.0840   -0.8660   -1.9610 C.3     1  UNL1        0.1270
      2  C          8.2300   -1.9800   -2.9150 C.2     1  UNL1        0.3030
      3  O          7.2000   -2.4490   -3.4710 O.2     1  UNL1       -0.2520
      4  O          9.4770   -2.5390   -3.2270 O.3     1  UNL1       -0.4810
      5  H         10.1780   -1.9480   -3.6540 H       1  UNL1        0.2960
      6  C          7.5280   -1.3240   -0.6240 C.3     1  UNL1        0.0470
      7  C          6.6150   -0.3020   -0.0490 C.2     1  UNL1       -0.0470
      8  C          6.2380    0.8080   -0.7910 C.2     1  UNL1        0.0040
      9  C          6.1060   -0.3910    1.2340 C.2     1  UNL1        0.0040
     10  C          5.4030    1.7770   -0.2830 C.2     1  UNL1        0.0000
     11  C          5.2700    0.5800    1.7410 C.2     1  UNL1        0.0000
     12  C          4.9010    1.6800    0.9990 C.2     1  UNL1        0.0000
@<TRIPOS>BOND
     1     5     4    1
     2     3     2    2
     3     4     2    1
     4     2     1    1
     5     1     6    1
     6     8    10    1
     7     8     7    2
     8     6     7    1
     9    10    12    2
    10     7     9    1
    11    12    11    1
    12     9    11    2
