@<TRIPOS>MOLECULE
/home/cewinharhar/GITHUB/reincatalyze/data/processed/docking_pred/2023-Apr-25-2248_maxeplen10_maxtrainstep1000_exh16_gamma099_lrac3e-4_lrcr1e-3/a450f47ca4f24610d4ad642e19216dd37a68a7e2_ligand_2.pdbqt
 12 12 0 0 0
SMALL
GASTEIGER

@<TRIPOS>ATOM
      1  C          4.9740    1.7730    0.7020 C.3     1  UNL1        0.1270
      2  C          4.4540    1.1170    1.9150 C.2     1  UNL1        0.3030
      3  O          5.1420    0.2150    2.4650 O.2     1  UNL1       -0.2520
      4  O          3.2190    1.4630    2.4800 O.3     1  UNL1       -0.4810
      5  H          2.9320    2.4330    2.4610 H       1  UNL1        0.2960
      6  C          6.4840    1.9340    0.7380 C.3     1  UNL1        0.0470
      7  C          7.1300    1.1360   -0.3360 C.2     1  UNL1       -0.0470
      8  C          6.3940    0.2310   -1.0860 C.2     1  UNL1        0.0040
      9  C          8.4760    1.2400   -0.6390 C.2     1  UNL1        0.0040
     10  C          6.9650   -0.5300   -2.0810 C.2     1  UNL1        0.0000
     11  C          9.0460    0.4780   -1.6350 C.2     1  UNL1        0.0000
     12  C          8.3090   -0.4190   -2.3740 C.2     1  UNL1        0.0000
@<TRIPOS>BOND
     1    12    10    2
     2    12    11    1
     3    10     8    1
     4    11     9    2
     5     8     7    2
     6     9     7    1
     7     7     6    1
     8     1     6    1
     9     1     2    1
    10     2     3    2
    11     2     4    1
    12     5     4    1
