MODEL 1
REMARK VINA RESULT:      -7.3      0.000      0.000
REMARK SMILES O=C(O)CCc1ccccc1
REMARK SMILES IDX 4 1 2 2 1 3 3 4 5 6 6 7 7 8 11 9 8 10 10 11 9 12
REMARK H PARENT 3 5
REMARK Flexibility Score: inf
ROOT
ATOM      1  C   UNL     1       8.419  -0.627  -2.181  1.00  0.00     0.127 C 
ENDROOT
BRANCH   1   2
ATOM      2  C   UNL     1       8.442  -1.905  -2.915  1.00  0.00     0.303 C 
ATOM      3  O   UNL     1       9.540  -2.505  -3.066  1.00  0.00    -0.252 OA
BRANCH   2   4
ATOM      4  O   UNL     1       7.281  -2.479  -3.452  1.00  0.00    -0.481 OA
ATOM      5  H   UNL     1       6.405  -1.983  -3.351  1.00  0.00     0.296 HD
ENDBRANCH   2   4
ENDBRANCH   1   2
BRANCH   1   6
ATOM      6  C   UNL     1       7.032  -0.012  -2.141  1.00  0.00     0.047 C 
BRANCH   6   7
ATOM      7  C   UNL     1       6.503   0.019  -0.752  1.00  0.00    -0.047 A 
ATOM      8  C   UNL     1       5.850   1.144  -0.268  1.00  0.00     0.004 A 
ATOM      9  C   UNL     1       6.636  -1.043   0.124  1.00  0.00     0.004 A 
ATOM     10  C   UNL     1       5.359   1.208   1.015  1.00  0.00     0.000 A 
ATOM     11  C   UNL     1       6.143  -0.978   1.409  1.00  0.00     0.000 A 
ATOM     12  C   UNL     1       5.497   0.142   1.882  1.00  0.00     0.000 A 
ENDBRANCH   6   7
ENDBRANCH   1   6
TORSDOF 4
ENDMDL
MODEL 2
REMARK VINA RESULT:      -7.3      0.208      1.730
REMARK SMILES O=C(O)CCc1ccccc1
REMARK SMILES IDX 4 1 2 2 1 3 3 4 5 6 6 7 7 8 11 9 8 10 10 11 9 12
REMARK H PARENT 3 5
REMARK Flexibility Score: inf
ROOT
ATOM      1  C   UNL     1       8.427  -0.696  -2.065  1.00  0.00     0.127 C 
ENDROOT
BRANCH   1   2
ATOM      2  C   UNL     1       8.414  -1.931  -2.868  1.00  0.00     0.303 C 
ATOM      3  O   UNL     1       7.307  -2.418  -3.225  1.00  0.00    -0.252 OA
BRANCH   2   4
ATOM      4  O   UNL     1       9.593  -2.586  -3.252  1.00  0.00    -0.481 OA
ATOM      5  H   UNL     1       9.566  -3.197  -4.058  1.00  0.00     0.296 HD
ENDBRANCH   2   4
ENDBRANCH   1   2
BRANCH   1   6
ATOM      6  C   UNL     1       7.105   0.047  -2.133  1.00  0.00     0.047 C 
BRANCH   6   7
ATOM      7  C   UNL     1       6.500   0.184  -0.782  1.00  0.00    -0.047 A 
ATOM      8  C   UNL     1       6.637  -0.826   0.160  1.00  0.00     0.004 A 
ATOM      9  C   UNL     1       5.773   1.295  -0.397  1.00  0.00     0.004 A 
ATOM     10  C   UNL     1       6.080  -0.734   1.415  1.00  0.00     0.000 A 
ATOM     11  C   UNL     1       5.216   1.385   0.861  1.00  0.00     0.000 A 
ATOM     12  C   UNL     1       5.355   0.379   1.789  1.00  0.00     0.000 A 
ENDBRANCH   6   7
ENDBRANCH   1   6
TORSDOF 4
ENDMDL
MODEL 3
REMARK VINA RESULT:      -6.8      3.404      5.079
REMARK SMILES O=C(O)CCc1ccccc1
REMARK SMILES IDX 4 1 2 2 1 3 3 4 5 6 6 7 7 8 11 9 8 10 10 11 9 12
REMARK H PARENT 3 5
REMARK Flexibility Score: inf
ROOT
ATOM      1  C   UNL     1       5.010   1.784   0.740  1.00  0.00     0.127 C 
ENDROOT
BRANCH   1   2
ATOM      2  C   UNL     1       4.470   1.108   1.933  1.00  0.00     0.303 C 
ATOM      3  O   UNL     1       5.148   0.195   2.479  1.00  0.00    -0.252 OA
BRANCH   2   4
ATOM      4  O   UNL     1       3.227   1.447   2.487  1.00  0.00    -0.481 OA
ATOM      5  H   UNL     1       2.825   0.835   3.183  1.00  0.00     0.296 HD
ENDBRANCH   2   4
ENDBRANCH   1   2
BRANCH   1   6
ATOM      6  C   UNL     1       6.525   1.875   0.768  1.00  0.00     0.047 C 
BRANCH   6   7
ATOM      7  C   UNL     1       7.127   1.070  -0.327  1.00  0.00    -0.047 A 
ATOM      8  C   UNL     1       8.465   1.222  -0.663  1.00  0.00     0.004 A 
ATOM      9  C   UNL     1       6.404   0.152  -1.066  1.00  0.00     0.004 A 
ATOM     10  C   UNL     1       9.050   0.500  -1.679  1.00  0.00     0.000 A 
ATOM     11  C   UNL     1       6.991  -0.570  -2.083  1.00  0.00     0.000 A 
ATOM     12  C   UNL     1       8.319  -0.414  -2.411  1.00  0.00     0.000 A 
ENDBRANCH   6   7
ENDBRANCH   1   6
TORSDOF 4
ENDMDL
MODEL 4
REMARK VINA RESULT:      -6.8      3.406      5.093
REMARK SMILES O=C(O)CCc1ccccc1
REMARK SMILES IDX 4 1 2 2 1 3 3 4 5 6 6 7 7 8 11 9 8 10 10 11 9 12
REMARK H PARENT 3 5
REMARK Flexibility Score: inf
ROOT
ATOM      1  C   UNL     1       4.974   1.773   0.702  1.00  0.00     0.127 C 
ENDROOT
BRANCH   1   2
ATOM      2  C   UNL     1       4.454   1.117   1.915  1.00  0.00     0.303 C 
ATOM      3  O   UNL     1       5.142   0.215   2.465  1.00  0.00    -0.252 OA
BRANCH   2   4
ATOM      4  O   UNL     1       3.219   1.463   2.480  1.00  0.00    -0.481 OA
ATOM      5  H   UNL     1       2.932   2.433   2.461  1.00  0.00     0.296 HD
ENDBRANCH   2   4
ENDBRANCH   1   2
BRANCH   1   6
ATOM      6  C   UNL     1       6.484   1.934   0.738  1.00  0.00     0.047 C 
BRANCH   6   7
ATOM      7  C   UNL     1       7.130   1.136  -0.336  1.00  0.00    -0.047 A 
ATOM      8  C   UNL     1       6.394   0.231  -1.086  1.00  0.00     0.004 A 
ATOM      9  C   UNL     1       8.476   1.240  -0.639  1.00  0.00     0.004 A 
ATOM     10  C   UNL     1       6.965  -0.530  -2.081  1.00  0.00     0.000 A 
ATOM     11  C   UNL     1       9.046   0.478  -1.635  1.00  0.00     0.000 A 
ATOM     12  C   UNL     1       8.309  -0.419  -2.374  1.00  0.00     0.000 A 
ENDBRANCH   6   7
ENDBRANCH   1   6
TORSDOF 4
ENDMDL
MODEL 5
REMARK VINA RESULT:      -6.6      1.945      2.317
REMARK SMILES O=C(O)CCc1ccccc1
REMARK SMILES IDX 4 1 2 2 1 3 3 4 5 6 6 7 7 8 11 9 8 10 10 11 9 12
REMARK H PARENT 3 5
REMARK Flexibility Score: inf
ROOT
ATOM      1  C   UNL     1       8.199   0.200  -2.129  1.00  0.00     0.127 C 
ENDROOT
BRANCH   1   2
ATOM      2  C   UNL     1       9.361   0.347  -1.234  1.00  0.00     0.303 C 
ATOM      3  O   UNL     1       9.455  -0.402  -0.224  1.00  0.00    -0.252 OA
BRANCH   2   4
ATOM      4  O   UNL     1      10.369   1.293  -1.467  1.00  0.00    -0.481 OA
ATOM      5  H   UNL     1      10.535   2.006  -0.769  1.00  0.00     0.296 HD
ENDBRANCH   2   4
ENDBRANCH   1   2
BRANCH   1   6
ATOM      6  C   UNL     1       7.107  -0.656  -1.515  1.00  0.00     0.047 C 
BRANCH   6   7
ATOM      7  C   UNL     1       6.337   0.109  -0.500  1.00  0.00    -0.047 A 
ATOM      8  C   UNL     1       5.810   1.357  -0.804  1.00  0.00     0.004 A 
ATOM      9  C   UNL     1       6.114  -0.360   0.782  1.00  0.00     0.004 A 
ATOM     10  C   UNL     1       5.102   2.095   0.117  1.00  0.00     0.000 A 
ATOM     11  C   UNL     1       5.405   0.380   1.703  1.00  0.00     0.000 A 
ATOM     12  C   UNL     1       4.886   1.618   1.394  1.00  0.00     0.000 A 
ENDBRANCH   6   7
ENDBRANCH   1   6
TORSDOF 4
ENDMDL
