@<TRIPOS>MOLECULE
/home/cewinharhar/GITHUB/reincatalyze/data/processed/docking_pred/2023-Apr-25-2248_maxeplen10_maxtrainstep1000_exh16_gamma099_lrac3e-4_lrcr1e-3/a450f47ca4f24610d4ad642e19216dd37a68a7e2_ligand_2.pdbqt
 12 12 0 0 0
SMALL
GASTEIGER

@<TRIPOS>ATOM
      1  C          8.1990    0.2000   -2.1290 C.3     1  UNL1        0.1270
      2  C          9.3610    0.3470   -1.2340 C.2     1  UNL1        0.3030
      3  O          9.4550   -0.4020   -0.2240 O.2     1  UNL1       -0.2520
      4  O         10.3690    1.2930   -1.4670 O.3     1  UNL1       -0.4810
      5  H         10.5350    2.0060   -0.7690 H       1  UNL1        0.2960
      6  C          7.1070   -0.6560   -1.5150 C.3     1  UNL1        0.0470
      7  C          6.3370    0.1090   -0.5000 C.2     1  UNL1       -0.0470
      8  C          5.8100    1.3570   -0.8040 C.2     1  UNL1        0.0040
      9  C          6.1140   -0.3600    0.7820 C.2     1  UNL1        0.0040
     10  C          5.1020    2.0950    0.1170 C.2     1  UNL1        0.0000
     11  C          5.4050    0.3800    1.7030 C.2     1  UNL1        0.0000
     12  C          4.8860    1.6180    1.3940 C.2     1  UNL1        0.0000
@<TRIPOS>BOND
     1     1     6    1
     2     1     2    1
     3     6     7    1
     4     4     2    1
     5     4     5    1
     6     2     3    2
     7     8     7    2
     8     8    10    1
     9     7     9    1
    10    10    12    2
    11     9    11    2
    12    12    11    1
