@<TRIPOS>MOLECULE
/home/cewinharhar/GITHUB/reincatalyze/data/processed/docking_pred/2023-Apr-25-2248_maxeplen10_maxtrainstep1000_exh16_gamma099_lrac3e-4_lrcr1e-3/a450f47ca4f24610d4ad642e19216dd37a68a7e2_ligand_2.pdbqt
 12 12 0 0 0
SMALL
GASTEIGER

@<TRIPOS>ATOM
      1  C          5.0100    1.7840    0.7400 C.3     1  UNL1        0.1270
      2  C          4.4700    1.1080    1.9330 C.2     1  UNL1        0.3030
      3  O          5.1480    0.1950    2.4790 O.2     1  UNL1       -0.2520
      4  O          3.2270    1.4470    2.4870 O.3     1  UNL1       -0.4810
      5  H          2.8250    0.8350    3.1830 H       1  UNL1        0.2960
      6  C          6.5250    1.8750    0.7680 C.3     1  UNL1        0.0470
      7  C          7.1270    1.0700   -0.3270 C.2     1  UNL1       -0.0470
      8  C          8.4650    1.2220   -0.6630 C.2     1  UNL1        0.0040
      9  C          6.4040    0.1520   -1.0660 C.2     1  UNL1        0.0040
     10  C          9.0500    0.5000   -1.6790 C.2     1  UNL1        0.0000
     11  C          6.9910   -0.5700   -2.0830 C.2     1  UNL1        0.0000
     12  C          8.3190   -0.4140   -2.4110 C.2     1  UNL1        0.0000
@<TRIPOS>BOND
     1    12    11    2
     2    12    10    1
     3    11     9    1
     4    10     8    2
     5     9     7    2
     6     8     7    1
     7     7     6    1
     8     1     6    1
     9     1     2    1
    10     2     3    2
    11     2     4    1
    12     4     5    1
