@<TRIPOS>MOLECULE
/home/cewinharhar/GITHUB/reincatalyze/data/processed/docking_pred/2023-Apr-25-2248_maxeplen10_maxtrainstep1000_exh16_gamma099_lrac3e-4_lrcr1e-3/a450f47ca4f24610d4ad642e19216dd37a68a7e2_ligand_2.pdbqt
 12 12 0 0 0
SMALL
GASTEIGER

@<TRIPOS>ATOM
      1  C          8.4190   -0.6270   -2.1810 C.3     1  UNL1        0.1270
      2  C          8.4420   -1.9050   -2.9150 C.2     1  UNL1        0.3030
      3  O          9.5400   -2.5050   -3.0660 O.2     1  UNL1       -0.2520
      4  O          7.2810   -2.4790   -3.4520 O.3     1  UNL1       -0.4810
      5  H          6.4050   -1.9830   -3.3510 H       1  UNL1        0.2960
      6  C          7.0320   -0.0120   -2.1410 C.3     1  UNL1        0.0470
      7  C          6.5030    0.0190   -0.7520 C.2     1  UNL1       -0.0470
      8  C          5.8500    1.1440   -0.2680 C.2     1  UNL1        0.0040
      9  C          6.6360   -1.0430    0.1240 C.2     1  UNL1        0.0040
     10  C          5.3590    1.2080    1.0150 C.2     1  UNL1        0.0000
     11  C          6.1430   -0.9780    1.4090 C.2     1  UNL1        0.0000
     12  C          5.4970    0.1420    1.8820 C.2     1  UNL1        0.0000
@<TRIPOS>BOND
     1     4     5    1
     2     4     2    1
     3     3     2    2
     4     2     1    1
     5     1     6    1
     6     6     7    1
     7     7     8    2
     8     7     9    1
     9     8    10    1
    10     9    11    2
    11    10    12    2
    12    11    12    1
