@<TRIPOS>MOLECULE
/home/cewinharhar/GITHUB/reincatalyze/data/processed/docking_pred/2023-Apr-25-2248_maxeplen10_maxtrainstep1000_exh16_gamma099_lrac3e-4_lrcr1e-3/a450f47ca4f24610d4ad642e19216dd37a68a7e2_ligand_2.pdbqt
 12 12 0 0 0
SMALL
GASTEIGER

@<TRIPOS>ATOM
      1  C          8.4270   -0.6960   -2.0650 C.3     1  UNL1        0.1270
      2  C          8.4140   -1.9310   -2.8680 C.2     1  UNL1        0.3030
      3  O          7.3070   -2.4180   -3.2250 O.2     1  UNL1       -0.2520
      4  O          9.5930   -2.5860   -3.2520 O.3     1  UNL1       -0.4810
      5  H          9.5660   -3.1970   -4.0580 H       1  UNL1        0.2960
      6  C          7.1050    0.0470   -2.1330 C.3     1  UNL1        0.0470
      7  C          6.5000    0.1840   -0.7820 C.2     1  UNL1       -0.0470
      8  C          6.6370   -0.8260    0.1600 C.2     1  UNL1        0.0040
      9  C          5.7730    1.2950   -0.3970 C.2     1  UNL1        0.0040
     10  C          6.0800   -0.7340    1.4150 C.2     1  UNL1        0.0000
     11  C          5.2160    1.3850    0.8610 C.2     1  UNL1        0.0000
     12  C          5.3550    0.3790    1.7890 C.2     1  UNL1        0.0000
@<TRIPOS>BOND
     1     5     4    1
     2     4     2    1
     3     3     2    2
     4     2     1    1
     5     6     1    1
     6     6     7    1
     7     7     9    2
     8     7     8    1
     9     9    11    1
    10     8    10    2
    11    11    12    2
    12    10    12    1
