@<TRIPOS>MOLECULE
/home/cewinharhar/GITHUB/reincatalyze/data/processed/docking_pred/2023-Apr-25-2248_maxeplen10_maxtrainstep1000_exh16_gamma099_lrac3e-4_lrcr1e-3/a5b16c92fd7591d551db5a31bdb9c28d24e6a5b8_ligand_2.pdbqt
 12 12 0 0 0
SMALL
GASTEIGER

@<TRIPOS>ATOM
      1  C          5.0110    1.7950    0.7490 C.3     1  UNL1        0.1270
      2  C          4.4610    1.1120    1.9330 C.2     1  UNL1        0.3030
      3  O          5.1290    0.1880    2.4720 O.2     1  UNL1       -0.2520
      4  O          3.2190    1.4560    2.4850 O.3     1  UNL1       -0.4810
      5  H          2.3930    1.3710    1.9070 H       1  UNL1        0.2960
      6  C          6.5270    1.8710    0.7820 C.3     1  UNL1        0.0470
      7  C          7.1250    1.0650   -0.3140 C.2     1  UNL1       -0.0470
      8  C          8.4570    1.2280   -0.6670 C.2     1  UNL1        0.0040
      9  C          6.4030    0.1330   -1.0380 C.2     1  UNL1        0.0040
     10  C          9.0370    0.5050   -1.6840 C.2     1  UNL1        0.0000
     11  C          6.9860   -0.5900   -2.0560 C.2     1  UNL1        0.0000
     12  C          8.3070   -0.4220   -2.4010 C.2     1  UNL1        0.0000
@<TRIPOS>BOND
     1    12    11    2
     2    12    10    1
     3    11     9    1
     4    10     8    2
     5     9     7    2
     6     8     7    1
     7     7     6    1
     8     1     6    1
     9     1     2    1
    10     5     4    1
    11     2     3    2
    12     2     4    1
