@<TRIPOS>MOLECULE
/home/cewinharhar/GITHUB/reincatalyze/data/processed/docking_pred/2023-Apr-25-2248_maxeplen10_maxtrainstep1000_exh16_gamma099_lrac3e-4_lrcr1e-3/a5b16c92fd7591d551db5a31bdb9c28d24e6a5b8_ligand_2.pdbqt
 12 12 0 0 0
SMALL
GASTEIGER

@<TRIPOS>ATOM
      1  C          8.4130   -0.6310   -2.1540 C.3     1  UNL1        0.1270
      2  C          8.4590   -1.9030   -2.8980 C.2     1  UNL1        0.3030
      3  O          9.5710   -2.4690   -3.0740 O.2     1  UNL1       -0.2520
      4  O          7.3050   -2.5080   -3.4160 O.3     1  UNL1       -0.4810
      5  H          6.8620   -3.2420   -2.8810 H       1  UNL1        0.2960
      6  C          7.0260   -0.0130   -2.1590 C.3     1  UNL1        0.0470
      7  C          6.4890    0.1000   -0.7780 C.2     1  UNL1       -0.0470
      8  C          6.6050   -0.9560    0.1150 C.2     1  UNL1        0.0040
      9  C          5.8460    1.2330   -0.3160 C.2     1  UNL1        0.0040
     10  C          6.1090   -0.8860    1.3970 C.2     1  UNL1        0.0000
     11  C          5.3490    1.3010    0.9680 C.2     1  UNL1        0.0000
     12  C          5.4680    0.2500    1.8480 C.2     1  UNL1        0.0000
@<TRIPOS>BOND
     1     4     2    1
     2     4     5    1
     3     3     2    2
     4     2     1    1
     5     6     1    1
     6     6     7    1
     7     7     9    2
     8     7     8    1
     9     9    11    1
    10     8    10    2
    11    11    12    2
    12    10    12    1
