@<TRIPOS>MOLECULE
/home/cewinharhar/GITHUB/reincatalyze/data/processed/docking_pred/2023-Apr-25-2248_maxeplen10_maxtrainstep1000_exh16_gamma099_lrac3e-4_lrcr1e-3/a5b16c92fd7591d551db5a31bdb9c28d24e6a5b8_ligand_2.pdbqt
 12 12 0 0 0
SMALL
GASTEIGER

@<TRIPOS>ATOM
      1  C          7.3350   -1.3850   -2.1420 C.3     1  UNL1        0.1270
      2  C          8.7520   -1.3820   -2.5490 C.2     1  UNL1        0.3030
      3  O          9.4990   -0.4440   -2.1600 O.2     1  UNL1       -0.2520
      4  O          9.3000   -2.3910   -3.3540 O.3     1  UNL1       -0.4810
      5  H          9.2360   -3.3500   -3.0390 H       1  UNL1        0.2960
      6  C          7.1710   -1.4530   -0.6350 C.3     1  UNL1        0.0470
      7  C          6.4180   -0.2760   -0.1270 C.2     1  UNL1       -0.0470
      8  C          5.9450   -0.2480    1.1770 C.2     1  UNL1        0.0040
      9  C          6.1440    0.8310   -0.9090 C.2     1  UNL1        0.0040
     10  C          5.2360    0.8220    1.6730 C.2     1  UNL1        0.0000
     11  C          5.4330    1.9010   -0.4100 C.2     1  UNL1        0.0000
     12  C          4.9650    1.9210    0.8840 C.2     1  UNL1        0.0000
@<TRIPOS>BOND
     1     4     5    1
     2     4     2    1
     3     2     3    2
     4     2     1    1
     5     1     6    1
     6     9    11    1
     7     9     7    2
     8     6     7    1
     9    11    12    2
    10     7     8    1
    11    12    10    1
    12     8    10    2
