MODEL 1
REMARK VINA RESULT:      -7.3      0.000      0.000
REMARK SMILES O=C(O)CCc1ccccc1
REMARK SMILES IDX 4 1 2 2 1 3 3 4 5 6 6 7 7 8 11 9 8 10 10 11 9 12
REMARK H PARENT 3 5
REMARK Flexibility Score: inf
ROOT
ATOM      1  C   UNL     1       8.413  -0.631  -2.154  1.00  0.00     0.127 C 
ENDROOT
BRANCH   1   2
ATOM      2  C   UNL     1       8.459  -1.903  -2.898  1.00  0.00     0.303 C 
ATOM      3  O   UNL     1       9.571  -2.469  -3.074  1.00  0.00    -0.252 OA
BRANCH   2   4
ATOM      4  O   UNL     1       7.305  -2.508  -3.416  1.00  0.00    -0.481 OA
ATOM      5  H   UNL     1       6.862  -3.242  -2.881  1.00  0.00     0.296 HD
ENDBRANCH   2   4
ENDBRANCH   1   2
BRANCH   1   6
ATOM      6  C   UNL     1       7.026  -0.013  -2.159  1.00  0.00     0.047 C 
BRANCH   6   7
ATOM      7  C   UNL     1       6.489   0.100  -0.778  1.00  0.00    -0.047 A 
ATOM      8  C   UNL     1       6.605  -0.956   0.115  1.00  0.00     0.004 A 
ATOM      9  C   UNL     1       5.846   1.233  -0.316  1.00  0.00     0.004 A 
ATOM     10  C   UNL     1       6.109  -0.886   1.397  1.00  0.00     0.000 A 
ATOM     11  C   UNL     1       5.349   1.301   0.968  1.00  0.00     0.000 A 
ATOM     12  C   UNL     1       5.468   0.250   1.848  1.00  0.00     0.000 A 
ENDBRANCH   6   7
ENDBRANCH   1   6
TORSDOF 4
ENDMDL
MODEL 2
REMARK VINA RESULT:      -7.3      0.043      1.421
REMARK SMILES O=C(O)CCc1ccccc1
REMARK SMILES IDX 4 1 2 2 1 3 3 4 5 6 6 7 7 8 11 9 8 10 10 11 9 12
REMARK H PARENT 3 5
REMARK Flexibility Score: inf
ROOT
ATOM      1  C   UNL     1       8.412  -0.600  -2.195  1.00  0.00     0.127 C 
ENDROOT
BRANCH   1   2
ATOM      2  C   UNL     1       8.442  -1.886  -2.914  1.00  0.00     0.303 C 
ATOM      3  O   UNL     1       9.548  -2.467  -3.084  1.00  0.00    -0.252 OA
BRANCH   2   4
ATOM      4  O   UNL     1       7.279  -2.489  -3.415  1.00  0.00    -0.481 OA
ATOM      5  H   UNL     1       6.444  -2.475  -2.847  1.00  0.00     0.296 HD
ENDBRANCH   2   4
ENDBRANCH   1   2
BRANCH   1   6
ATOM      6  C   UNL     1       7.021   0.006  -2.159  1.00  0.00     0.047 C 
BRANCH   6   7
ATOM      7  C   UNL     1       6.496   0.053  -0.769  1.00  0.00    -0.047 A 
ATOM      8  C   UNL     1       5.864   1.192  -0.290  1.00  0.00     0.004 A 
ATOM      9  C   UNL     1       6.613  -1.006   0.112  1.00  0.00     0.004 A 
ATOM     10  C   UNL     1       5.377   1.271   0.995  1.00  0.00     0.000 A 
ATOM     11  C   UNL     1       6.124  -0.926   1.398  1.00  0.00     0.000 A 
ATOM     12  C   UNL     1       5.500   0.208   1.867  1.00  0.00     0.000 A 
ENDBRANCH   6   7
ENDBRANCH   1   6
TORSDOF 4
ENDMDL
MODEL 3
REMARK VINA RESULT:      -6.9      1.029      1.618
REMARK SMILES O=C(O)CCc1ccccc1
REMARK SMILES IDX 4 1 2 2 1 3 3 4 5 6 6 7 7 8 11 9 8 10 10 11 9 12
REMARK H PARENT 3 5
REMARK Flexibility Score: inf
ROOT
ATOM      1  C   UNL     1       7.335  -1.385  -2.142  1.00  0.00     0.127 C 
ENDROOT
BRANCH   1   2
ATOM      2  C   UNL     1       8.752  -1.382  -2.549  1.00  0.00     0.303 C 
ATOM      3  O   UNL     1       9.499  -0.444  -2.160  1.00  0.00    -0.252 OA
BRANCH   2   4
ATOM      4  O   UNL     1       9.300  -2.391  -3.354  1.00  0.00    -0.481 OA
ATOM      5  H   UNL     1       9.236  -3.350  -3.039  1.00  0.00     0.296 HD
ENDBRANCH   2   4
ENDBRANCH   1   2
BRANCH   1   6
ATOM      6  C   UNL     1       7.171  -1.453  -0.635  1.00  0.00     0.047 C 
BRANCH   6   7
ATOM      7  C   UNL     1       6.418  -0.276  -0.127  1.00  0.00    -0.047 A 
ATOM      8  C   UNL     1       5.945  -0.248   1.177  1.00  0.00     0.004 A 
ATOM      9  C   UNL     1       6.144   0.831  -0.909  1.00  0.00     0.004 A 
ATOM     10  C   UNL     1       5.236   0.822   1.673  1.00  0.00     0.000 A 
ATOM     11  C   UNL     1       5.433   1.901  -0.410  1.00  0.00     0.000 A 
ATOM     12  C   UNL     1       4.965   1.921   0.884  1.00  0.00     0.000 A 
ENDBRANCH   6   7
ENDBRANCH   1   6
TORSDOF 4
ENDMDL
MODEL 4
REMARK VINA RESULT:      -6.8      3.397      5.098
REMARK SMILES O=C(O)CCc1ccccc1
REMARK SMILES IDX 4 1 2 2 1 3 3 4 5 6 6 7 7 8 11 9 8 10 10 11 9 12
REMARK H PARENT 3 5
REMARK Flexibility Score: inf
ROOT
ATOM      1  C   UNL     1       5.011   1.795   0.749  1.00  0.00     0.127 C 
ENDROOT
BRANCH   1   2
ATOM      2  C   UNL     1       4.461   1.112   1.933  1.00  0.00     0.303 C 
ATOM      3  O   UNL     1       5.129   0.188   2.472  1.00  0.00    -0.252 OA
BRANCH   2   4
ATOM      4  O   UNL     1       3.219   1.456   2.485  1.00  0.00    -0.481 OA
ATOM      5  H   UNL     1       2.393   1.371   1.907  1.00  0.00     0.296 HD
ENDBRANCH   2   4
ENDBRANCH   1   2
BRANCH   1   6
ATOM      6  C   UNL     1       6.527   1.871   0.782  1.00  0.00     0.047 C 
BRANCH   6   7
ATOM      7  C   UNL     1       7.125   1.065  -0.314  1.00  0.00    -0.047 A 
ATOM      8  C   UNL     1       8.457   1.228  -0.667  1.00  0.00     0.004 A 
ATOM      9  C   UNL     1       6.403   0.133  -1.038  1.00  0.00     0.004 A 
ATOM     10  C   UNL     1       9.037   0.505  -1.684  1.00  0.00     0.000 A 
ATOM     11  C   UNL     1       6.986  -0.590  -2.056  1.00  0.00     0.000 A 
ATOM     12  C   UNL     1       8.307  -0.422  -2.401  1.00  0.00     0.000 A 
ENDBRANCH   6   7
ENDBRANCH   1   6
TORSDOF 4
ENDMDL
MODEL 5
REMARK VINA RESULT:      -6.6      3.850      4.944
REMARK SMILES O=C(O)CCc1ccccc1
REMARK SMILES IDX 4 1 2 2 1 3 3 4 5 6 6 7 7 8 11 9 8 10 10 11 9 12
REMARK H PARENT 3 5
REMARK Flexibility Score: inf
ROOT
ATOM      1  C   UNL     1       5.528   2.884   0.065  1.00  0.00     0.127 C 
ENDROOT
BRANCH   1   2
ATOM      2  C   UNL     1       6.276   3.886   0.845  1.00  0.00     0.303 C 
ATOM      3  O   UNL     1       6.931   4.774   0.234  1.00  0.00    -0.252 OA
BRANCH   2   4
ATOM      4  O   UNL     1       6.284   3.888   2.247  1.00  0.00    -0.481 OA
ATOM      5  H   UNL     1       5.547   3.397   2.735  1.00  0.00     0.296 HD
ENDBRANCH   2   4
ENDBRANCH   1   2
BRANCH   1   6
ATOM      6  C   UNL     1       4.960   1.782   0.941  1.00  0.00     0.047 C 
BRANCH   6   7
ATOM      7  C   UNL     1       5.848   0.590   0.939  1.00  0.00    -0.047 A 
ATOM      8  C   UNL     1       5.713  -0.394   1.909  1.00  0.00     0.004 A 
ATOM      9  C   UNL     1       6.844   0.399  -0.001  1.00  0.00     0.004 A 
ATOM     10  C   UNL     1       6.525  -1.504   1.941  1.00  0.00     0.000 A 
ATOM     11  C   UNL     1       7.657  -0.713   0.033  1.00  0.00     0.000 A 
ATOM     12  C   UNL     1       7.518  -1.684   0.999  1.00  0.00     0.000 A 
ENDBRANCH   6   7
ENDBRANCH   1   6
TORSDOF 4
ENDMDL
