@<TRIPOS>MOLECULE
/home/cewinharhar/GITHUB/reincatalyze/data/processed/docking_pred/2023-Apr-25-2248_maxeplen10_maxtrainstep1000_exh16_gamma099_lrac3e-4_lrcr1e-3/a5b16c92fd7591d551db5a31bdb9c28d24e6a5b8_ligand_2.pdbqt
 12 12 0 0 0
SMALL
GASTEIGER

@<TRIPOS>ATOM
      1  C          5.5280    2.8840    0.0650 C.3     1  UNL1        0.1270
      2  C          6.2760    3.8860    0.8450 C.2     1  UNL1        0.3030
      3  O          6.9310    4.7740    0.2340 O.2     1  UNL1       -0.2520
      4  O          6.2840    3.8880    2.2470 O.3     1  UNL1       -0.4810
      5  H          5.5470    3.3970    2.7350 H       1  UNL1        0.2960
      6  C          4.9600    1.7820    0.9410 C.3     1  UNL1        0.0470
      7  C          5.8480    0.5900    0.9390 C.2     1  UNL1       -0.0470
      8  C          5.7130   -0.3940    1.9090 C.2     1  UNL1        0.0040
      9  C          6.8440    0.3990   -0.0010 C.2     1  UNL1        0.0040
     10  C          6.5250   -1.5040    1.9410 C.2     1  UNL1        0.0000
     11  C          7.6570   -0.7130    0.0330 C.2     1  UNL1        0.0000
     12  C          7.5180   -1.6840    0.9990 C.2     1  UNL1        0.0000
@<TRIPOS>BOND
     1     9    11    1
     2     9     7    2
     3    11    12    2
     4     1     2    1
     5     1     6    1
     6     3     2    2
     7     2     4    1
     8     7     6    1
     9     7     8    1
    10    12    10    1
    11     8    10    2
    12     4     5    1
