@<TRIPOS>MOLECULE
/home/cewinharhar/GITHUB/reincatalyze/data/processed/docking_pred/2023-Apr-25-2248_maxeplen10_maxtrainstep1000_exh16_gamma099_lrac3e-4_lrcr1e-3/a5b16c92fd7591d551db5a31bdb9c28d24e6a5b8_ligand_2.pdbqt
 12 12 0 0 0
SMALL
GASTEIGER

@<TRIPOS>ATOM
      1  C          8.4120   -0.6000   -2.1950 C.3     1  UNL1        0.1270
      2  C          8.4420   -1.8860   -2.9140 C.2     1  UNL1        0.3030
      3  O          9.5480   -2.4670   -3.0840 O.2     1  UNL1       -0.2520
      4  O          7.2790   -2.4890   -3.4150 O.3     1  UNL1       -0.4810
      5  H          6.4440   -2.4750   -2.8470 H       1  UNL1        0.2960
      6  C          7.0210    0.0060   -2.1590 C.3     1  UNL1        0.0470
      7  C          6.4960    0.0530   -0.7690 C.2     1  UNL1       -0.0470
      8  C          5.8640    1.1920   -0.2900 C.2     1  UNL1        0.0040
      9  C          6.6130   -1.0060    0.1120 C.2     1  UNL1        0.0040
     10  C          5.3770    1.2710    0.9950 C.2     1  UNL1        0.0000
     11  C          6.1240   -0.9260    1.3980 C.2     1  UNL1        0.0000
     12  C          5.5000    0.2080    1.8670 C.2     1  UNL1        0.0000
@<TRIPOS>BOND
     1     4     2    1
     2     4     5    1
     3     3     2    2
     4     2     1    1
     5     1     6    1
     6     6     7    1
     7     7     8    2
     8     7     9    1
     9     8    10    1
    10     9    11    2
    11    10    12    2
    12    11    12    1
