@<TRIPOS>MOLECULE
/home/cewinharhar/GITHUB/reincatalyze/data/processed/docking_pred/2023-Apr-25-2248_maxeplen10_maxtrainstep1000_exh16_gamma099_lrac3e-4_lrcr1e-3/a614218f6e6a1b7d791f470f20b1a009abdeaae3_ligand_2.pdbqt
 12 12 0 0 0
SMALL
GASTEIGER

@<TRIPOS>ATOM
      1  C          8.2760    0.2490   -2.1970 C.3     1  UNL1        0.1270
      2  C          9.3940    0.3830   -1.2480 C.2     1  UNL1        0.3030
      3  O          9.4540   -0.3970   -0.2590 O.2     1  UNL1       -0.2520
      4  O         10.3980    1.3490   -1.4060 O.3     1  UNL1       -0.4810
      5  H         11.3590    1.0420   -1.4700 H       1  UNL1        0.2960
      6  C          7.1160   -0.5370   -1.6120 C.3     1  UNL1        0.0470
      7  C          6.3390    0.2930   -0.6550 C.2     1  UNL1       -0.0470
      8  C          6.1100   -0.1480    0.6410 C.2     1  UNL1        0.0040
      9  C          5.8030    1.5220   -0.9940 C.2     1  UNL1        0.0040
     10  C          5.3860    0.5930    1.5470 C.2     1  UNL1        0.0000
     11  C          5.0780    2.2630   -0.0850 C.2     1  UNL1        0.0000
     12  C          4.8540    1.8180    1.1980 C.2     1  UNL1        0.0000
@<TRIPOS>BOND
     1     1     6    1
     2     1     2    1
     3     6     7    1
     4     5     4    1
     5     4     2    1
     6     2     3    2
     7     9     7    2
     8     9    11    1
     9     7     8    1
    10    11    12    2
    11     8    10    2
    12    12    10    1
