MODEL 1
REMARK VINA RESULT:      -7.4      0.000      0.000
REMARK SMILES O=C(O)CCc1ccccc1
REMARK SMILES IDX 4 1 2 2 1 3 3 4 5 6 6 7 7 8 11 9 8 10 10 11 9 12
REMARK H PARENT 3 5
REMARK Flexibility Score: inf
ROOT
ATOM      1  C   UNL     1       8.398  -0.669  -2.095  1.00  0.00     0.127 C 
ENDROOT
BRANCH   1   2
ATOM      2  C   UNL     1       8.440  -1.909  -2.891  1.00  0.00     0.303 C 
ATOM      3  O   UNL     1       9.551  -2.472  -3.089  1.00  0.00    -0.252 OA
BRANCH   2   4
ATOM      4  O   UNL     1       7.285  -2.488  -3.436  1.00  0.00    -0.481 OA
ATOM      5  H   UNL     1       7.390  -3.198  -4.148  1.00  0.00     0.296 HD
ENDBRANCH   2   4
ENDBRANCH   1   2
BRANCH   1   6
ATOM      6  C   UNL     1       7.028  -0.016  -2.124  1.00  0.00     0.047 C 
BRANCH   6   7
ATOM      7  C   UNL     1       6.469   0.111  -0.752  1.00  0.00    -0.047 A 
ATOM      8  C   UNL     1       6.589  -0.928   0.159  1.00  0.00     0.004 A 
ATOM      9  C   UNL     1       5.804   1.242  -0.317  1.00  0.00     0.004 A 
ATOM     10  C   UNL     1       6.074  -0.846   1.433  1.00  0.00     0.000 A 
ATOM     11  C   UNL     1       5.288   1.323   0.959  1.00  0.00     0.000 A 
ATOM     12  C   UNL     1       5.410   0.287   1.857  1.00  0.00     0.000 A 
ENDBRANCH   6   7
ENDBRANCH   1   6
TORSDOF 4
ENDMDL
MODEL 2
REMARK VINA RESULT:      -7.3      0.115      1.724
REMARK SMILES O=C(O)CCc1ccccc1
REMARK SMILES IDX 4 1 2 2 1 3 3 4 5 6 6 7 7 8 11 9 8 10 10 11 9 12
REMARK H PARENT 3 5
REMARK Flexibility Score: inf
ROOT
ATOM      1  C   UNL     1       8.396  -0.744  -2.011  1.00  0.00     0.127 C 
ENDROOT
BRANCH   1   2
ATOM      2  C   UNL     1       8.389  -1.954  -2.853  1.00  0.00     0.303 C 
ATOM      3  O   UNL     1       7.286  -2.413  -3.255  1.00  0.00    -0.252 OA
BRANCH   2   4
ATOM      4  O   UNL     1       9.569  -2.612  -3.226  1.00  0.00    -0.481 OA
ATOM      5  H   UNL     1       9.880  -3.399  -2.672  1.00  0.00     0.296 HD
ENDBRANCH   2   4
ENDBRANCH   1   2
BRANCH   1   6
ATOM      6  C   UNL     1       7.071  -0.005  -2.057  1.00  0.00     0.047 C 
BRANCH   6   7
ATOM      7  C   UNL     1       6.472   0.099  -0.701  1.00  0.00    -0.047 A 
ATOM      8  C   UNL     1       5.776   1.238  -0.320  1.00  0.00     0.004 A 
ATOM      9  C   UNL     1       6.580  -0.905   0.244  1.00  0.00     0.004 A 
ATOM     10  C   UNL     1       5.219   1.369   0.931  1.00  0.00     0.000 A 
ATOM     11  C   UNL     1       6.021  -0.771   1.497  1.00  0.00     0.000 A 
ATOM     12  C   UNL     1       5.333   0.362   1.868  1.00  0.00     0.000 A 
ENDBRANCH   6   7
ENDBRANCH   1   6
TORSDOF 4
ENDMDL
MODEL 3
REMARK VINA RESULT:      -6.8      3.400      5.099
REMARK SMILES O=C(O)CCc1ccccc1
REMARK SMILES IDX 4 1 2 2 1 3 3 4 5 6 6 7 7 8 11 9 8 10 10 11 9 12
REMARK H PARENT 3 5
REMARK Flexibility Score: inf
ROOT
ATOM      1  C   UNL     1       4.997   1.822   0.736  1.00  0.00     0.127 C 
ENDROOT
BRANCH   1   2
ATOM      2  C   UNL     1       4.471   1.133   1.928  1.00  0.00     0.303 C 
ATOM      3  O   UNL     1       5.162   0.225   2.465  1.00  0.00    -0.252 OA
BRANCH   2   4
ATOM      4  O   UNL     1       3.226   1.453   2.489  1.00  0.00    -0.481 OA
ATOM      5  H   UNL     1       2.389   1.233   1.966  1.00  0.00     0.296 HD
ENDBRANCH   2   4
ENDBRANCH   1   2
BRANCH   1   6
ATOM      6  C   UNL     1       6.511   1.931   0.757  1.00  0.00     0.047 C 
BRANCH   6   7
ATOM      7  C   UNL     1       7.119   1.121  -0.330  1.00  0.00    -0.047 A 
ATOM      8  C   UNL     1       8.470   1.232  -0.625  1.00  0.00     0.004 A 
ATOM      9  C   UNL     1       6.388   0.235  -1.101  1.00  0.00     0.004 A 
ATOM     10  C   UNL     1       9.060   0.504  -1.632  1.00  0.00     0.000 A 
ATOM     11  C   UNL     1       6.981  -0.494  -2.109  1.00  0.00     0.000 A 
ATOM     12  C   UNL     1       8.322  -0.377  -2.397  1.00  0.00     0.000 A 
ENDBRANCH   6   7
ENDBRANCH   1   6
TORSDOF 4
ENDMDL
MODEL 4
REMARK VINA RESULT:      -6.8      3.388      5.069
REMARK SMILES O=C(O)CCc1ccccc1
REMARK SMILES IDX 4 1 2 2 1 3 3 4 5 6 6 7 7 8 11 9 8 10 10 11 9 12
REMARK H PARENT 3 5
REMARK Flexibility Score: inf
ROOT
ATOM      1  C   UNL     1       4.997   1.767   0.753  1.00  0.00     0.127 C 
ENDROOT
BRANCH   1   2
ATOM      2  C   UNL     1       4.484   1.059   1.939  1.00  0.00     0.303 C 
ATOM      3  O   UNL     1       5.164   0.118   2.432  1.00  0.00    -0.252 OA
BRANCH   2   4
ATOM      4  O   UNL     1       3.263   1.395   2.541  1.00  0.00    -0.481 OA
ATOM      5  H   UNL     1       2.892   2.324   2.395  1.00  0.00     0.296 HD
ENDBRANCH   2   4
ENDBRANCH   1   2
BRANCH   1   6
ATOM      6  C   UNL     1       6.507   1.923   0.785  1.00  0.00     0.047 C 
BRANCH   6   7
ATOM      7  C   UNL     1       7.145   1.155  -0.315  1.00  0.00    -0.047 A 
ATOM      8  C   UNL     1       6.423   0.212  -1.032  1.00  0.00     0.004 A 
ATOM      9  C   UNL     1       8.470   1.323  -0.676  1.00  0.00     0.004 A 
ATOM     10  C   UNL     1       6.988  -0.523  -2.050  1.00  0.00     0.000 A 
ATOM     11  C   UNL     1       9.034   0.587  -1.695  1.00  0.00     0.000 A 
ATOM     12  C   UNL     1       8.311  -0.347  -2.401  1.00  0.00     0.000 A 
ENDBRANCH   6   7
ENDBRANCH   1   6
TORSDOF 4
ENDMDL
MODEL 5
REMARK VINA RESULT:      -6.6      1.943      2.344
REMARK SMILES O=C(O)CCc1ccccc1
REMARK SMILES IDX 4 1 2 2 1 3 3 4 5 6 6 7 7 8 11 9 8 10 10 11 9 12
REMARK H PARENT 3 5
REMARK Flexibility Score: inf
ROOT
ATOM      1  C   UNL     1       8.276   0.249  -2.197  1.00  0.00     0.127 C 
ENDROOT
BRANCH   1   2
ATOM      2  C   UNL     1       9.394   0.383  -1.248  1.00  0.00     0.303 C 
ATOM      3  O   UNL     1       9.454  -0.397  -0.259  1.00  0.00    -0.252 OA
BRANCH   2   4
ATOM      4  O   UNL     1      10.398   1.349  -1.406  1.00  0.00    -0.481 OA
ATOM      5  H   UNL     1      11.359   1.042  -1.470  1.00  0.00     0.296 HD
ENDBRANCH   2   4
ENDBRANCH   1   2
BRANCH   1   6
ATOM      6  C   UNL     1       7.116  -0.537  -1.612  1.00  0.00     0.047 C 
BRANCH   6   7
ATOM      7  C   UNL     1       6.339   0.293  -0.655  1.00  0.00    -0.047 A 
ATOM      8  C   UNL     1       6.110  -0.148   0.641  1.00  0.00     0.004 A 
ATOM      9  C   UNL     1       5.803   1.522  -0.994  1.00  0.00     0.004 A 
ATOM     10  C   UNL     1       5.386   0.593   1.547  1.00  0.00     0.000 A 
ATOM     11  C   UNL     1       5.078   2.263  -0.085  1.00  0.00     0.000 A 
ATOM     12  C   UNL     1       4.854   1.818   1.198  1.00  0.00     0.000 A 
ENDBRANCH   6   7
ENDBRANCH   1   6
TORSDOF 4
ENDMDL
