@<TRIPOS>MOLECULE
/home/cewinharhar/GITHUB/reincatalyze/data/processed/docking_pred/2023-Apr-25-2248_maxeplen10_maxtrainstep1000_exh16_gamma099_lrac3e-4_lrcr1e-3/a614218f6e6a1b7d791f470f20b1a009abdeaae3_ligand_2.pdbqt
 12 12 0 0 0
SMALL
GASTEIGER

@<TRIPOS>ATOM
      1  C          4.9970    1.7670    0.7530 C.3     1  UNL1        0.1270
      2  C          4.4840    1.0590    1.9390 C.2     1  UNL1        0.3030
      3  O          5.1640    0.1180    2.4320 O.2     1  UNL1       -0.2520
      4  O          3.2630    1.3950    2.5410 O.3     1  UNL1       -0.4810
      5  H          2.8920    2.3240    2.3950 H       1  UNL1        0.2960
      6  C          6.5070    1.9230    0.7850 C.3     1  UNL1        0.0470
      7  C          7.1450    1.1550   -0.3150 C.2     1  UNL1       -0.0470
      8  C          6.4230    0.2120   -1.0320 C.2     1  UNL1        0.0040
      9  C          8.4700    1.3230   -0.6760 C.2     1  UNL1        0.0040
     10  C          6.9880   -0.5230   -2.0500 C.2     1  UNL1        0.0000
     11  C          9.0340    0.5870   -1.6950 C.2     1  UNL1        0.0000
     12  C          8.3110   -0.3470   -2.4010 C.2     1  UNL1        0.0000
@<TRIPOS>BOND
     1    12    10    2
     2    12    11    1
     3    10     8    1
     4    11     9    2
     5     8     7    2
     6     9     7    1
     7     7     6    1
     8     1     6    1
     9     1     2    1
    10     2     3    2
    11     2     4    1
    12     5     4    1
