@<TRIPOS>MOLECULE
/home/cewinharhar/GITHUB/reincatalyze/data/processed/docking_pred/2023-Apr-25-2248_maxeplen10_maxtrainstep1000_exh16_gamma099_lrac3e-4_lrcr1e-3/a614218f6e6a1b7d791f470f20b1a009abdeaae3_ligand_2.pdbqt
 12 12 0 0 0
SMALL
GASTEIGER

@<TRIPOS>ATOM
      1  C          8.3980   -0.6690   -2.0950 C.3     1  UNL1        0.1270
      2  C          8.4400   -1.9090   -2.8910 C.2     1  UNL1        0.3030
      3  O          9.5510   -2.4720   -3.0890 O.2     1  UNL1       -0.2520
      4  O          7.2850   -2.4880   -3.4360 O.3     1  UNL1       -0.4810
      5  H          7.3900   -3.1980   -4.1480 H       1  UNL1        0.2960
      6  C          7.0280   -0.0160   -2.1240 C.3     1  UNL1        0.0470
      7  C          6.4690    0.1110   -0.7520 C.2     1  UNL1       -0.0470
      8  C          6.5890   -0.9280    0.1590 C.2     1  UNL1        0.0040
      9  C          5.8040    1.2420   -0.3170 C.2     1  UNL1        0.0040
     10  C          6.0740   -0.8460    1.4330 C.2     1  UNL1        0.0000
     11  C          5.2880    1.3230    0.9590 C.2     1  UNL1        0.0000
     12  C          5.4100    0.2870    1.8570 C.2     1  UNL1        0.0000
@<TRIPOS>BOND
     1     5     4    1
     2     4     2    1
     3     3     2    2
     4     2     1    1
     5     6     1    1
     6     6     7    1
     7     7     9    2
     8     7     8    1
     9     9    11    1
    10     8    10    2
    11    11    12    2
    12    10    12    1
