@<TRIPOS>MOLECULE
/home/cewinharhar/GITHUB/reincatalyze/data/processed/docking_pred/2023-Apr-25-2248_maxeplen10_maxtrainstep1000_exh16_gamma099_lrac3e-4_lrcr1e-3/a614218f6e6a1b7d791f470f20b1a009abdeaae3_ligand_2.pdbqt
 12 12 0 0 0
SMALL
GASTEIGER

@<TRIPOS>ATOM
      1  C          8.3960   -0.7440   -2.0110 C.3     1  UNL1        0.1270
      2  C          8.3890   -1.9540   -2.8530 C.2     1  UNL1        0.3030
      3  O          7.2860   -2.4130   -3.2550 O.2     1  UNL1       -0.2520
      4  O          9.5690   -2.6120   -3.2260 O.3     1  UNL1       -0.4810
      5  H          9.8800   -3.3990   -2.6720 H       1  UNL1        0.2960
      6  C          7.0710   -0.0050   -2.0570 C.3     1  UNL1        0.0470
      7  C          6.4720    0.0990   -0.7010 C.2     1  UNL1       -0.0470
      8  C          5.7760    1.2380   -0.3200 C.2     1  UNL1        0.0040
      9  C          6.5800   -0.9050    0.2440 C.2     1  UNL1        0.0040
     10  C          5.2190    1.3690    0.9310 C.2     1  UNL1        0.0000
     11  C          6.0210   -0.7710    1.4970 C.2     1  UNL1        0.0000
     12  C          5.3330    0.3620    1.8680 C.2     1  UNL1        0.0000
@<TRIPOS>BOND
     1     3     2    2
     2     4     2    1
     3     4     5    1
     4     2     1    1
     5     6     1    1
     6     6     7    1
     7     7     8    2
     8     7     9    1
     9     8    10    1
    10     9    11    2
    11    10    12    2
    12    11    12    1
