@<TRIPOS>MOLECULE
/home/cewinharhar/GITHUB/reincatalyze/data/processed/docking_pred/2023-Apr-25-2248_maxeplen10_maxtrainstep1000_exh16_gamma099_lrac3e-4_lrcr1e-3/a6201df4fd59712db5137144eee8a96fed35f0a9_ligand_2.pdbqt
 12 12 0 0 0
SMALL
GASTEIGER

@<TRIPOS>ATOM
      1  C          4.9940    1.7550    0.7160 C.3     1  UNL1        0.1270
      2  C          4.4660    1.1010    1.9260 C.2     1  UNL1        0.3030
      3  O          5.1490    0.1990    2.4820 O.2     1  UNL1       -0.2520
      4  O          3.2270    1.4480    2.4830 O.3     1  UNL1       -0.4810
      5  H          3.1530    2.3180    2.9940 H       1  UNL1        0.2960
      6  C          6.5040    1.9010    0.7550 C.3     1  UNL1        0.0470
      7  C          7.1450    1.1150   -0.3310 C.2     1  UNL1       -0.0470
      8  C          6.4020    0.2220   -1.0910 C.2     1  UNL1        0.0040
      9  C          8.4900    1.2170   -0.6360 C.2     1  UNL1        0.0040
     10  C          6.9680   -0.5280   -2.0960 C.2     1  UNL1        0.0000
     11  C          9.0550    0.4650   -1.6440 C.2     1  UNL1        0.0000
     12  C          8.3120   -0.4200   -2.3920 C.2     1  UNL1        0.0000
@<TRIPOS>BOND
     1    12    10    2
     2    12    11    1
     3    10     8    1
     4    11     9    2
     5     8     7    2
     6     9     7    1
     7     7     6    1
     8     1     6    1
     9     1     2    1
    10     2     3    2
    11     2     4    1
    12     4     5    1
