@<TRIPOS>MOLECULE
/home/cewinharhar/GITHUB/reincatalyze/data/processed/docking_pred/2023-Apr-25-2248_maxeplen10_maxtrainstep1000_exh16_gamma099_lrac3e-4_lrcr1e-3/a6201df4fd59712db5137144eee8a96fed35f0a9_ligand_2.pdbqt
 12 12 0 0 0
SMALL
GASTEIGER

@<TRIPOS>ATOM
      1  C          8.3030   -1.7380    1.2160 C.3     1  UNL1        0.1270
      2  C          8.6990   -2.9550    0.4860 C.2     1  UNL1        0.3030
      3  O          9.4400   -3.7990    1.0590 O.2     1  UNL1       -0.2520
      4  O          8.2790   -3.2080   -0.8280 O.3     1  UNL1       -0.4810
      5  H          8.6220   -4.0380   -1.2940 H       1  UNL1        0.2960
      6  C          6.7990   -1.6430    1.4000 C.3     1  UNL1        0.0470
      7  C          6.2720   -0.3740    0.8350 C.2     1  UNL1       -0.0470
      8  C          5.4810    0.4680    1.6030 C.2     1  UNL1        0.0040
      9  C          6.5240    0.0280   -0.4640 C.2     1  UNL1        0.0040
     10  C          4.9690    1.6450    1.1050 C.2     1  UNL1        0.0000
     11  C          6.0110    1.2070   -0.9610 C.2     1  UNL1        0.0000
     12  C          5.2260    2.0370   -0.1930 C.2     1  UNL1        0.0000
@<TRIPOS>BOND
     1     5     4    1
     2    11     9    1
     3    11    12    2
     4     4     2    1
     5     9     7    2
     6    12    10    1
     7     2     3    2
     8     2     1    1
     9     7     6    1
    10     7     8    1
    11    10     8    2
    12     1     6    1
