@<TRIPOS>MOLECULE
/home/cewinharhar/GITHUB/reincatalyze/data/processed/docking_pred/2023-Apr-25-2248_maxeplen10_maxtrainstep1000_exh16_gamma099_lrac3e-4_lrcr1e-3/a6201df4fd59712db5137144eee8a96fed35f0a9_ligand_2.pdbqt
 12 12 0 0 0
SMALL
GASTEIGER

@<TRIPOS>ATOM
      1  C          8.4220   -0.6230   -2.1530 C.3     1  UNL1        0.1270
      2  C          8.4620   -1.8920   -2.9010 C.2     1  UNL1        0.3030
      3  O          9.5710   -2.4690   -3.0680 O.2     1  UNL1       -0.2520
      4  O          7.3080   -2.4830   -3.4330 O.3     1  UNL1       -0.4810
      5  H          6.4240   -2.0060   -3.3200 H       1  UNL1        0.2960
      6  C          7.0330   -0.0100   -2.1370 C.3     1  UNL1        0.0470
      7  C          6.4920    0.0480   -0.7530 C.2     1  UNL1       -0.0470
      8  C          5.8320    1.1800   -0.2980 C.2     1  UNL1        0.0040
      9  C          6.6220   -0.9960    0.1450 C.2     1  UNL1        0.0040
     10  C          5.3290    1.2680    0.9790 C.2     1  UNL1        0.0000
     11  C          6.1180   -0.9060    1.4250 C.2     1  UNL1        0.0000
     12  C          5.4650    0.2220    1.8690 C.2     1  UNL1        0.0000
@<TRIPOS>BOND
     1     4     5    1
     2     4     2    1
     3     3     2    2
     4     2     1    1
     5     1     6    1
     6     6     7    1
     7     7     8    2
     8     7     9    1
     9     8    10    1
    10     9    11    2
    11    10    12    2
    12    11    12    1
