@<TRIPOS>MOLECULE
/home/cewinharhar/GITHUB/reincatalyze/data/processed/docking_pred/2023-Apr-25-2248_maxeplen10_maxtrainstep1000_exh16_gamma099_lrac3e-4_lrcr1e-3/a6201df4fd59712db5137144eee8a96fed35f0a9_ligand_2.pdbqt
 12 12 0 0 0
SMALL
GASTEIGER

@<TRIPOS>ATOM
      1  C          5.4080    3.0050    0.1170 C.3     1  UNL1        0.1270
      2  C          6.2710    3.9170    0.8880 C.2     1  UNL1        0.3030
      3  O          6.9620    4.7730    0.2710 O.2     1  UNL1       -0.2520
      4  O          6.3510    3.8680    2.2870 O.3     1  UNL1       -0.4810
      5  H          7.1590    3.4320    2.7100 H       1  UNL1        0.2960
      6  C          5.1710    1.6910    0.8410 C.3     1  UNL1        0.0470
      7  C          5.9690    0.5960    0.2300 C.2     1  UNL1       -0.0470
      8  C          6.2960    0.6250   -1.1180 C.2     1  UNL1        0.0040
      9  C          6.4140   -0.4970    0.9510 C.2     1  UNL1        0.0040
     10  C          7.0240   -0.3780   -1.7150 C.2     1  UNL1        0.0000
     11  C          7.1430   -1.5010    0.3520 C.2     1  UNL1        0.0000
     12  C          7.4630   -1.4660   -0.9860 C.2     1  UNL1        0.0000
@<TRIPOS>BOND
     1    10     8    1
     2    10    12    2
     3     8     7    2
     4    12    11    1
     5     1     6    1
     6     1     2    1
     7     7     6    1
     8     7     9    1
     9     3     2    2
    10    11     9    2
    11     2     4    1
    12     4     5    1
