@<TRIPOS>MOLECULE
/home/cewinharhar/GITHUB/reincatalyze/data/processed/docking_pred/2023-Apr-25-2248_maxeplen10_maxtrainstep1000_exh16_gamma099_lrac3e-4_lrcr1e-3/a6201df4fd59712db5137144eee8a96fed35f0a9_ligand_2.pdbqt
 12 12 0 0 0
SMALL
GASTEIGER

@<TRIPOS>ATOM
      1  C          8.4120   -0.7280   -2.0300 C.3     1  UNL1        0.1270
      2  C          8.4080   -1.9420   -2.8660 C.2     1  UNL1        0.3030
      3  O          7.3050   -2.4260   -3.2370 O.2     1  UNL1       -0.2520
      4  O          9.5920   -2.5780   -3.2670 O.3     1  UNL1       -0.4810
      5  H         10.3810   -2.5730   -2.6340 H       1  UNL1        0.2960
      6  C          7.0900    0.0150   -2.0920 C.3     1  UNL1        0.0470
      7  C          6.4910    0.1500   -0.7380 C.2     1  UNL1       -0.0470
      8  C          6.5970   -0.8770    0.1890 C.2     1  UNL1        0.0040
      9  C          5.8000    1.2780   -0.3350 C.2     1  UNL1        0.0040
     10  C          6.0450   -0.7870    1.4460 C.2     1  UNL1        0.0000
     11  C          5.2470    1.3670    0.9250 C.2     1  UNL1        0.0000
     12  C          5.3560    0.3430    1.8380 C.2     1  UNL1        0.0000
@<TRIPOS>BOND
     1     4     2    1
     2     4     5    1
     3     3     2    2
     4     2     1    1
     5     6     1    1
     6     6     7    1
     7     7     9    2
     8     7     8    1
     9     9    11    1
    10     8    10    2
    11    11    12    2
    12    10    12    1
