MODEL 1
REMARK VINA RESULT:      -7.3      0.000      0.000
REMARK SMILES O=C(O)CCc1ccccc1
REMARK SMILES IDX 4 1 2 2 1 3 3 4 5 6 6 7 7 8 11 9 8 10 10 11 9 12
REMARK H PARENT 3 5
REMARK Flexibility Score: inf
ROOT
ATOM      1  C   UNL     1       8.422  -0.623  -2.153  1.00  0.00     0.127 C 
ENDROOT
BRANCH   1   2
ATOM      2  C   UNL     1       8.462  -1.892  -2.901  1.00  0.00     0.303 C 
ATOM      3  O   UNL     1       9.571  -2.469  -3.068  1.00  0.00    -0.252 OA
BRANCH   2   4
ATOM      4  O   UNL     1       7.308  -2.483  -3.433  1.00  0.00    -0.481 OA
ATOM      5  H   UNL     1       6.424  -2.006  -3.320  1.00  0.00     0.296 HD
ENDBRANCH   2   4
ENDBRANCH   1   2
BRANCH   1   6
ATOM      6  C   UNL     1       7.033  -0.010  -2.137  1.00  0.00     0.047 C 
BRANCH   6   7
ATOM      7  C   UNL     1       6.492   0.048  -0.753  1.00  0.00    -0.047 A 
ATOM      8  C   UNL     1       5.832   1.180  -0.298  1.00  0.00     0.004 A 
ATOM      9  C   UNL     1       6.622  -0.996   0.145  1.00  0.00     0.004 A 
ATOM     10  C   UNL     1       5.329   1.268   0.979  1.00  0.00     0.000 A 
ATOM     11  C   UNL     1       6.118  -0.906   1.425  1.00  0.00     0.000 A 
ATOM     12  C   UNL     1       5.465   0.222   1.869  1.00  0.00     0.000 A 
ENDBRANCH   6   7
ENDBRANCH   1   6
TORSDOF 4
ENDMDL
MODEL 2
REMARK VINA RESULT:      -7.3      0.147      1.726
REMARK SMILES O=C(O)CCc1ccccc1
REMARK SMILES IDX 4 1 2 2 1 3 3 4 5 6 6 7 7 8 11 9 8 10 10 11 9 12
REMARK H PARENT 3 5
REMARK Flexibility Score: inf
ROOT
ATOM      1  C   UNL     1       8.412  -0.728  -2.030  1.00  0.00     0.127 C 
ENDROOT
BRANCH   1   2
ATOM      2  C   UNL     1       8.408  -1.942  -2.866  1.00  0.00     0.303 C 
ATOM      3  O   UNL     1       7.305  -2.426  -3.237  1.00  0.00    -0.252 OA
BRANCH   2   4
ATOM      4  O   UNL     1       9.592  -2.578  -3.267  1.00  0.00    -0.481 OA
ATOM      5  H   UNL     1      10.381  -2.573  -2.634  1.00  0.00     0.296 HD
ENDBRANCH   2   4
ENDBRANCH   1   2
BRANCH   1   6
ATOM      6  C   UNL     1       7.090   0.015  -2.092  1.00  0.00     0.047 C 
BRANCH   6   7
ATOM      7  C   UNL     1       6.491   0.150  -0.738  1.00  0.00    -0.047 A 
ATOM      8  C   UNL     1       6.597  -0.877   0.189  1.00  0.00     0.004 A 
ATOM      9  C   UNL     1       5.800   1.278  -0.335  1.00  0.00     0.004 A 
ATOM     10  C   UNL     1       6.045  -0.787   1.446  1.00  0.00     0.000 A 
ATOM     11  C   UNL     1       5.247   1.367   0.925  1.00  0.00     0.000 A 
ATOM     12  C   UNL     1       5.356   0.343   1.838  1.00  0.00     0.000 A 
ENDBRANCH   6   7
ENDBRANCH   1   6
TORSDOF 4
ENDMDL
MODEL 3
REMARK VINA RESULT:      -6.8      3.403      5.093
REMARK SMILES O=C(O)CCc1ccccc1
REMARK SMILES IDX 4 1 2 2 1 3 3 4 5 6 6 7 7 8 11 9 8 10 10 11 9 12
REMARK H PARENT 3 5
REMARK Flexibility Score: inf
ROOT
ATOM      1  C   UNL     1       4.994   1.755   0.716  1.00  0.00     0.127 C 
ENDROOT
BRANCH   1   2
ATOM      2  C   UNL     1       4.466   1.101   1.926  1.00  0.00     0.303 C 
ATOM      3  O   UNL     1       5.149   0.199   2.482  1.00  0.00    -0.252 OA
BRANCH   2   4
ATOM      4  O   UNL     1       3.227   1.448   2.483  1.00  0.00    -0.481 OA
ATOM      5  H   UNL     1       3.153   2.318   2.994  1.00  0.00     0.296 HD
ENDBRANCH   2   4
ENDBRANCH   1   2
BRANCH   1   6
ATOM      6  C   UNL     1       6.504   1.901   0.755  1.00  0.00     0.047 C 
BRANCH   6   7
ATOM      7  C   UNL     1       7.145   1.115  -0.331  1.00  0.00    -0.047 A 
ATOM      8  C   UNL     1       6.402   0.222  -1.091  1.00  0.00     0.004 A 
ATOM      9  C   UNL     1       8.490   1.217  -0.636  1.00  0.00     0.004 A 
ATOM     10  C   UNL     1       6.968  -0.528  -2.096  1.00  0.00     0.000 A 
ATOM     11  C   UNL     1       9.055   0.465  -1.644  1.00  0.00     0.000 A 
ATOM     12  C   UNL     1       8.312  -0.420  -2.392  1.00  0.00     0.000 A 
ENDBRANCH   6   7
ENDBRANCH   1   6
TORSDOF 4
ENDMDL
MODEL 4
REMARK VINA RESULT:      -6.5      3.778      4.991
REMARK SMILES O=C(O)CCc1ccccc1
REMARK SMILES IDX 4 1 2 2 1 3 3 4 5 6 6 7 7 8 11 9 8 10 10 11 9 12
REMARK H PARENT 3 5
REMARK Flexibility Score: inf
ROOT
ATOM      1  C   UNL     1       5.408   3.005   0.117  1.00  0.00     0.127 C 
ENDROOT
BRANCH   1   2
ATOM      2  C   UNL     1       6.271   3.917   0.888  1.00  0.00     0.303 C 
ATOM      3  O   UNL     1       6.962   4.773   0.271  1.00  0.00    -0.252 OA
BRANCH   2   4
ATOM      4  O   UNL     1       6.351   3.868   2.287  1.00  0.00    -0.481 OA
ATOM      5  H   UNL     1       7.159   3.432   2.710  1.00  0.00     0.296 HD
ENDBRANCH   2   4
ENDBRANCH   1   2
BRANCH   1   6
ATOM      6  C   UNL     1       5.171   1.691   0.841  1.00  0.00     0.047 C 
BRANCH   6   7
ATOM      7  C   UNL     1       5.969   0.596   0.230  1.00  0.00    -0.047 A 
ATOM      8  C   UNL     1       6.296   0.625  -1.118  1.00  0.00     0.004 A 
ATOM      9  C   UNL     1       6.414  -0.497   0.951  1.00  0.00     0.004 A 
ATOM     10  C   UNL     1       7.024  -0.378  -1.715  1.00  0.00     0.000 A 
ATOM     11  C   UNL     1       7.143  -1.501   0.352  1.00  0.00     0.000 A 
ATOM     12  C   UNL     1       7.463  -1.466  -0.986  1.00  0.00     0.000 A 
ENDBRANCH   6   7
ENDBRANCH   1   6
TORSDOF 4
ENDMDL
MODEL 5
REMARK VINA RESULT:      -6.5      1.968      2.924
REMARK SMILES O=C(O)CCc1ccccc1
REMARK SMILES IDX 4 1 2 2 1 3 3 4 5 6 6 7 7 8 11 9 8 10 10 11 9 12
REMARK H PARENT 3 5
REMARK Flexibility Score: inf
ROOT
ATOM      1  C   UNL     1       8.303  -1.738   1.216  1.00  0.00     0.127 C 
ENDROOT
BRANCH   1   2
ATOM      2  C   UNL     1       8.699  -2.955   0.486  1.00  0.00     0.303 C 
ATOM      3  O   UNL     1       9.440  -3.799   1.059  1.00  0.00    -0.252 OA
BRANCH   2   4
ATOM      4  O   UNL     1       8.279  -3.208  -0.828  1.00  0.00    -0.481 OA
ATOM      5  H   UNL     1       8.622  -4.038  -1.294  1.00  0.00     0.296 HD
ENDBRANCH   2   4
ENDBRANCH   1   2
BRANCH   1   6
ATOM      6  C   UNL     1       6.799  -1.643   1.400  1.00  0.00     0.047 C 
BRANCH   6   7
ATOM      7  C   UNL     1       6.272  -0.374   0.835  1.00  0.00    -0.047 A 
ATOM      8  C   UNL     1       5.481   0.468   1.603  1.00  0.00     0.004 A 
ATOM      9  C   UNL     1       6.524   0.028  -0.464  1.00  0.00     0.004 A 
ATOM     10  C   UNL     1       4.969   1.645   1.105  1.00  0.00     0.000 A 
ATOM     11  C   UNL     1       6.011   1.207  -0.961  1.00  0.00     0.000 A 
ATOM     12  C   UNL     1       5.226   2.037  -0.193  1.00  0.00     0.000 A 
ENDBRANCH   6   7
ENDBRANCH   1   6
TORSDOF 4
ENDMDL
