@<TRIPOS>MOLECULE
/home/cewinharhar/GITHUB/reincatalyze/data/processed/docking_pred/2023-Apr-25-2248_maxeplen10_maxtrainstep1000_exh16_gamma099_lrac3e-4_lrcr1e-3/a7c8c9f10e55c2841f25afbe7e611a3f864293db_ligand_2.pdbqt
 12 12 0 0 0
SMALL
GASTEIGER

@<TRIPOS>ATOM
      1  C          8.3920   -0.6670   -2.1040 C.3     1  UNL1        0.1270
      2  C          8.3980   -1.9180   -2.8830 C.2     1  UNL1        0.3030
      3  O          7.2990   -2.4230   -3.2380 O.2     1  UNL1       -0.2520
      4  O          9.5870   -2.5680   -3.2450 O.3     1  UNL1       -0.4810
      5  H          9.5730   -3.1940   -4.0380 H       1  UNL1        0.2960
      6  C          7.0360    0.0160   -2.1250 C.3     1  UNL1        0.0470
      7  C          6.4740    0.1270   -0.7540 C.2     1  UNL1       -0.0470
      8  C          6.6110   -0.9130    0.1540 C.2     1  UNL1        0.0040
      9  C          5.7880    1.2450   -0.3150 C.2     1  UNL1        0.0040
     10  C          6.0930   -0.8440    1.4270 C.2     1  UNL1        0.0000
     11  C          5.2700    1.3120    0.9610 C.2     1  UNL1        0.0000
     12  C          5.4090    0.2750    1.8550 C.2     1  UNL1        0.0000
@<TRIPOS>BOND
     1     5     4    1
     2     4     2    1
     3     3     2    2
     4     2     1    1
     5     6     1    1
     6     6     7    1
     7     7     9    2
     8     7     8    1
     9     9    11    1
    10     8    10    2
    11    11    12    2
    12    10    12    1
