@<TRIPOS>MOLECULE
/home/cewinharhar/GITHUB/reincatalyze/data/processed/docking_pred/2023-Apr-25-2248_maxeplen10_maxtrainstep1000_exh16_gamma099_lrac3e-4_lrcr1e-3/a7c8c9f10e55c2841f25afbe7e611a3f864293db_ligand_2.pdbqt
 12 12 0 0 0
SMALL
GASTEIGER

@<TRIPOS>ATOM
      1  C          8.4220   -0.6050   -2.2170 C.3     1  UNL1        0.1270
      2  C          8.4420   -1.8990   -2.9210 C.2     1  UNL1        0.3030
      3  O          9.5430   -2.4960   -3.0740 O.2     1  UNL1       -0.2520
      4  O          7.2770   -2.4930   -3.4270 O.3     1  UNL1       -0.4810
      5  H          7.3090   -2.9130   -4.3470 H       1  UNL1        0.2960
      6  C          7.0320    0.0040   -2.1750 C.3     1  UNL1        0.0470
      7  C          6.5090    0.0400   -0.7840 C.2     1  UNL1       -0.0470
      8  C          5.8620    1.1680   -0.3000 C.2     1  UNL1        0.0040
      9  C          6.6410   -1.0210    0.0930 C.2     1  UNL1        0.0040
     10  C          5.3760    1.2370    0.9860 C.2     1  UNL1        0.0000
     11  C          6.1540   -0.9510    1.3810 C.2     1  UNL1        0.0000
     12  C          5.5140    0.1730    1.8540 C.2     1  UNL1        0.0000
@<TRIPOS>BOND
     1     5     4    1
     2     4     2    1
     3     3     2    2
     4     2     1    1
     5     1     6    1
     6     6     7    1
     7     7     8    2
     8     7     9    1
     9     8    10    1
    10     9    11    2
    11    10    12    2
    12    11    12    1
