@<TRIPOS>MOLECULE
/home/cewinharhar/GITHUB/reincatalyze/data/processed/docking_pred/2023-Apr-25-2248_maxeplen10_maxtrainstep1000_exh16_gamma099_lrac3e-4_lrcr1e-3/a7c8c9f10e55c2841f25afbe7e611a3f864293db_ligand_2.pdbqt
 12 12 0 0 0
SMALL
GASTEIGER

@<TRIPOS>ATOM
      1  C          4.9910    1.7860    0.7370 C.3     1  UNL1        0.1270
      2  C          4.4600    1.1100    1.9340 C.2     1  UNL1        0.3030
      3  O          5.1420    0.1970    2.4750 O.2     1  UNL1       -0.2520
      4  O          3.2200    1.4470    2.4960 O.3     1  UNL1       -0.4810
      5  H          2.8230    0.8340    3.1950 H       1  UNL1        0.2960
      6  C          6.5050    1.8920    0.7630 C.3     1  UNL1        0.0470
      7  C          7.1140    1.0870   -0.3280 C.2     1  UNL1       -0.0470
      8  C          8.4560    1.2300   -0.6490 C.2     1  UNL1        0.0040
      9  C          6.3930    0.1750   -1.0770 C.2     1  UNL1        0.0040
     10  C          9.0470    0.5070   -1.6600 C.2     1  UNL1        0.0000
     11  C          6.9860   -0.5480   -2.0900 C.2     1  UNL1        0.0000
     12  C          8.3180   -0.3990   -2.4030 C.2     1  UNL1        0.0000
@<TRIPOS>BOND
     1    12    11    2
     2    12    10    1
     3    11     9    1
     4    10     8    2
     5     9     7    2
     6     8     7    1
     7     7     6    1
     8     1     6    1
     9     1     2    1
    10     2     3    2
    11     2     4    1
    12     4     5    1
