@<TRIPOS>MOLECULE
/home/cewinharhar/GITHUB/reincatalyze/data/processed/docking_pred/2023-Apr-25-2248_maxeplen10_maxtrainstep1000_exh16_gamma099_lrac3e-4_lrcr1e-3/a7c8c9f10e55c2841f25afbe7e611a3f864293db_ligand_2.pdbqt
 12 12 0 0 0
SMALL
GASTEIGER

@<TRIPOS>ATOM
      1  C          8.3070   -1.7290    1.1720 C.3     1  UNL1        0.1270
      2  C          8.7070   -2.9600    0.4670 C.2     1  UNL1        0.3030
      3  O          9.4550   -3.7880    1.0550 O.2     1  UNL1       -0.2520
      4  O          8.2820   -3.2450   -0.8390 O.3     1  UNL1       -0.4810
      5  H          8.2140   -4.2120   -1.1250 H       1  UNL1        0.2960
      6  C          6.8080   -1.6600    1.4010 C.3     1  UNL1        0.0470
      7  C          6.2470   -0.3890    0.8740 C.2     1  UNL1       -0.0470
      8  C          6.5040    0.0120   -0.4290 C.2     1  UNL1        0.0040
      9  C          5.4620    0.4560    1.6380 C.2     1  UNL1        0.0040
     10  C          6.0080    1.1880   -0.9430 C.2     1  UNL1        0.0000
     11  C          4.9660    1.6340    1.1210 C.2     1  UNL1        0.0000
     12  C          5.2260    2.0250   -0.1720 C.2     1  UNL1        0.0000
@<TRIPOS>BOND
     1     5     4    1
     2    10     8    1
     3    10    12    2
     4     4     2    1
     5     8     7    2
     6    12    11    1
     7     2     3    2
     8     2     1    1
     9     7     6    1
    10     7     9    1
    11    11     9    2
    12     1     6    1
