@<TRIPOS>MOLECULE
/home/cewinharhar/GITHUB/reincatalyze/data/processed/docking_pred/2023-Apr-25-2248_maxeplen10_maxtrainstep1000_exh16_gamma099_lrac3e-4_lrcr1e-3/a7c8c9f10e55c2841f25afbe7e611a3f864293db_ligand_2.pdbqt
 12 12 0 0 0
SMALL
GASTEIGER

@<TRIPOS>ATOM
      1  C          7.3390   -1.3200   -2.0640 C.3     1  UNL1        0.1270
      2  C          8.7640   -1.3350   -2.4400 C.2     1  UNL1        0.3030
      3  O          9.1990   -2.2800   -3.1520 O.2     1  UNL1       -0.2520
      4  O          9.6560   -0.3320   -2.0330 O.3     1  UNL1       -0.4810
      5  H         10.6400   -0.4520   -2.2290 H       1  UNL1        0.2960
      6  C          7.1400   -1.4380   -0.5630 C.3     1  UNL1        0.0470
      7  C          6.3740   -0.2800   -0.0350 C.2     1  UNL1       -0.0470
      8  C          6.1150    0.8220   -0.8360 C.2     1  UNL1        0.0040
      9  C          5.8920   -0.2300    1.2610 C.2     1  UNL1        0.0040
     10  C          5.4170    1.9140   -0.3730 C.2     1  UNL1        0.0000
     11  C          5.1940    0.8650    1.7230 C.2     1  UNL1        0.0000
     12  C          4.9420    1.9560    0.9220 C.2     1  UNL1        0.0000
@<TRIPOS>BOND
     1     3     2    2
     2     2     1    1
     3     2     4    1
     4     5     4    1
     5     1     6    1
     6     8    10    1
     7     8     7    2
     8     6     7    1
     9    10    12    2
    10     7     9    1
    11    12    11    1
    12     9    11    2
