@<TRIPOS>MOLECULE
/home/cewinharhar/GITHUB/reincatalyze/data/processed/docking_pred/2023-Apr-25-2248_maxeplen10_maxtrainstep1000_exh16_gamma099_lrac3e-4_lrcr1e-3/a8cbf1bb962d04eb60783bb2dc55df042853f03a_ligand_2.pdbqt
 12 12 0 0 0
SMALL
GASTEIGER

@<TRIPOS>ATOM
      1  C          8.3740   -0.6300   -2.1480 C.3     1  UNL1        0.1270
      2  C          8.3860   -1.8970   -2.9000 C.2     1  UNL1        0.3030
      3  O          7.2890   -2.4140   -3.2460 O.2     1  UNL1       -0.2520
      4  O          9.5780   -2.5500   -3.2460 O.3     1  UNL1       -0.4810
      5  H         10.1440   -2.9470   -2.5080 H       1  UNL1        0.2960
      6  C          7.0030    0.0220   -2.1440 C.3     1  UNL1        0.0470
      7  C          6.4650    0.1230   -0.7620 C.2     1  UNL1       -0.0470
      8  C          6.6130   -0.9260    0.1330 C.2     1  UNL1        0.0040
      9  C          5.7930    1.2400   -0.3010 C.2     1  UNL1        0.0040
     10  C          6.1170   -0.8670    1.4160 C.2     1  UNL1        0.0000
     11  C          5.2980    1.2980    0.9840 C.2     1  UNL1        0.0000
     12  C          5.4470    0.2520    1.8660 C.2     1  UNL1        0.0000
@<TRIPOS>BOND
     1     3     2    2
     2     4     2    1
     3     4     5    1
     4     2     1    1
     5     1     6    1
     6     6     7    1
     7     7     9    2
     8     7     8    1
     9     9    11    1
    10     8    10    2
    11    11    12    2
    12    10    12    1
