@<TRIPOS>MOLECULE
/home/cewinharhar/GITHUB/reincatalyze/data/processed/docking_pred/2023-Apr-25-2248_maxeplen10_maxtrainstep1000_exh16_gamma099_lrac3e-4_lrcr1e-3/a8cbf1bb962d04eb60783bb2dc55df042853f03a_ligand_2.pdbqt
 12 12 0 0 0
SMALL
GASTEIGER

@<TRIPOS>ATOM
      1  C          4.9900    1.7780    0.7260 C.3     1  UNL1        0.1270
      2  C          4.4640    1.1120    1.9310 C.2     1  UNL1        0.3030
      3  O          5.1520    0.2100    2.4820 O.2     1  UNL1       -0.2520
      4  O          3.2230    1.4490    2.4900 O.3     1  UNL1       -0.4810
      5  H          2.6190    0.7040    2.8110 H       1  UNL1        0.2960
      6  C          6.5030    1.8980    0.7520 C.3     1  UNL1        0.0470
      7  C          7.1200    1.0880   -0.3310 C.2     1  UNL1       -0.0470
      8  C          8.4650    1.2300   -0.6430 C.2     1  UNL1        0.0040
      9  C          6.4050    0.1720   -1.0810 C.2     1  UNL1        0.0040
     10  C          9.0630    0.5030   -1.6470 C.2     1  UNL1        0.0000
     11  C          7.0050   -0.5560   -2.0860 C.2     1  UNL1        0.0000
     12  C          8.3390   -0.4080   -2.3900 C.2     1  UNL1        0.0000
@<TRIPOS>BOND
     1    12    11    2
     2    12    10    1
     3    11     9    1
     4    10     8    2
     5     9     7    2
     6     8     7    1
     7     7     6    1
     8     1     6    1
     9     1     2    1
    10     2     3    2
    11     2     4    1
    12     4     5    1
