@<TRIPOS>MOLECULE
/home/cewinharhar/GITHUB/reincatalyze/data/processed/docking_pred/2023-Apr-25-2248_maxeplen10_maxtrainstep1000_exh16_gamma099_lrac3e-4_lrcr1e-3/a8cbf1bb962d04eb60783bb2dc55df042853f03a_ligand_2.pdbqt
 12 12 0 0 0
SMALL
GASTEIGER

@<TRIPOS>ATOM
      1  C          5.4570    2.7820    0.0630 C.3     1  UNL1        0.1270
      2  C          6.2340    3.7650    0.8390 C.2     1  UNL1        0.3030
      3  O          6.2180    3.7010    2.0990 O.2     1  UNL1       -0.2520
      4  O          6.9930    4.7720    0.2250 O.3     1  UNL1       -0.4810
      5  H          7.9560    4.8910    0.5070 H       1  UNL1        0.2960
      6  C          4.8750    1.6890    0.9410 C.3     1  UNL1        0.0470
      7  C          5.7350    0.4770    0.9240 C.2     1  UNL1       -0.0470
      8  C          5.8020   -0.3590    2.0290 C.2     1  UNL1        0.0040
      9  C          6.5100    0.1250   -0.1660 C.2     1  UNL1        0.0040
     10  C          6.5960   -1.4830    2.0480 C.2     1  UNL1        0.0000
     11  C          7.3060   -1.0010   -0.1450 C.2     1  UNL1        0.0000
     12  C          7.3670   -1.8250    0.9560 C.2     1  UNL1        0.0000
@<TRIPOS>BOND
     1     9    11    1
     2     9     7    2
     3    11    12    2
     4     1     2    1
     5     1     6    1
     6     4     5    1
     7     4     2    1
     8     2     3    2
     9     7     6    1
    10     7     8    1
    11    12    10    1
    12     8    10    2
