MODEL 1
REMARK VINA RESULT:      -7.3      0.000      0.000
REMARK SMILES O=C(O)CCc1ccccc1
REMARK SMILES IDX 4 1 2 2 1 3 3 4 5 6 6 7 7 8 11 9 8 10 10 11 9 12
REMARK H PARENT 3 5
REMARK Flexibility Score: inf
ROOT
ATOM      1  C   UNL     1       8.437  -0.607  -2.211  1.00  0.00     0.127 C 
ENDROOT
BRANCH   1   2
ATOM      2  C   UNL     1       8.486  -1.901  -2.914  1.00  0.00     0.303 C 
ATOM      3  O   UNL     1       9.598  -2.480  -3.052  1.00  0.00    -0.252 OA
BRANCH   2   4
ATOM      4  O   UNL     1       7.337  -2.514  -3.434  1.00  0.00    -0.481 OA
ATOM      5  H   UNL     1       6.826  -3.160  -2.847  1.00  0.00     0.296 HD
ENDBRANCH   2   4
ENDBRANCH   1   2
BRANCH   1   6
ATOM      6  C   UNL     1       7.041  -0.009  -2.205  1.00  0.00     0.047 C 
BRANCH   6   7
ATOM      7  C   UNL     1       6.506   0.083  -0.822  1.00  0.00    -0.047 A 
ATOM      8  C   UNL     1       5.872   1.236  -0.384  1.00  0.00     0.004 A 
ATOM      9  C   UNL     1       6.616  -0.949   0.093  1.00  0.00     0.004 A 
ATOM     10  C   UNL     1       5.375   1.356   0.894  1.00  0.00     0.000 A 
ATOM     11  C   UNL     1       6.118  -0.827   1.372  1.00  0.00     0.000 A 
ATOM     12  C   UNL     1       5.490   0.322   1.800  1.00  0.00     0.000 A 
ENDBRANCH   6   7
ENDBRANCH   1   6
TORSDOF 4
ENDMDL
MODEL 2
REMARK VINA RESULT:      -7.3      0.124      1.724
REMARK SMILES O=C(O)CCc1ccccc1
REMARK SMILES IDX 4 1 2 2 1 3 3 4 5 6 6 7 7 8 11 9 8 10 10 11 9 12
REMARK H PARENT 3 5
REMARK Flexibility Score: inf
ROOT
ATOM      1  C   UNL     1       8.374  -0.630  -2.148  1.00  0.00     0.127 C 
ENDROOT
BRANCH   1   2
ATOM      2  C   UNL     1       8.386  -1.897  -2.900  1.00  0.00     0.303 C 
ATOM      3  O   UNL     1       7.289  -2.414  -3.246  1.00  0.00    -0.252 OA
BRANCH   2   4
ATOM      4  O   UNL     1       9.578  -2.550  -3.246  1.00  0.00    -0.481 OA
ATOM      5  H   UNL     1      10.144  -2.947  -2.508  1.00  0.00     0.296 HD
ENDBRANCH   2   4
ENDBRANCH   1   2
BRANCH   1   6
ATOM      6  C   UNL     1       7.003   0.022  -2.144  1.00  0.00     0.047 C 
BRANCH   6   7
ATOM      7  C   UNL     1       6.465   0.123  -0.762  1.00  0.00    -0.047 A 
ATOM      8  C   UNL     1       6.613  -0.926   0.133  1.00  0.00     0.004 A 
ATOM      9  C   UNL     1       5.793   1.240  -0.301  1.00  0.00     0.004 A 
ATOM     10  C   UNL     1       6.117  -0.867   1.416  1.00  0.00     0.000 A 
ATOM     11  C   UNL     1       5.298   1.298   0.984  1.00  0.00     0.000 A 
ATOM     12  C   UNL     1       5.447   0.252   1.866  1.00  0.00     0.000 A 
ENDBRANCH   6   7
ENDBRANCH   1   6
TORSDOF 4
ENDMDL
MODEL 3
REMARK VINA RESULT:      -7.0      1.018      1.599
REMARK SMILES O=C(O)CCc1ccccc1
REMARK SMILES IDX 4 1 2 2 1 3 3 4 5 6 6 7 7 8 11 9 8 10 10 11 9 12
REMARK H PARENT 3 5
REMARK Flexibility Score: inf
ROOT
ATOM      1  C   UNL     1       7.322  -1.269  -2.137  1.00  0.00     0.127 C 
ENDROOT
BRANCH   1   2
ATOM      2  C   UNL     1       8.743  -1.348  -2.517  1.00  0.00     0.303 C 
ATOM      3  O   UNL     1       9.536  -0.455  -2.112  1.00  0.00    -0.252 OA
BRANCH   2   4
ATOM      4  O   UNL     1       9.248  -2.386  -3.315  1.00  0.00    -0.481 OA
ATOM      5  H   UNL     1       9.919  -3.024  -2.909  1.00  0.00     0.296 HD
ENDBRANCH   2   4
ENDBRANCH   1   2
BRANCH   1   6
ATOM      6  C   UNL     1       7.118  -1.425  -0.641  1.00  0.00     0.047 C 
BRANCH   6   7
ATOM      7  C   UNL     1       6.366  -0.271  -0.083  1.00  0.00    -0.047 A 
ATOM      8  C   UNL     1       6.123   0.856  -0.856  1.00  0.00     0.004 A 
ATOM      9  C   UNL     1       5.885  -0.247   1.213  1.00  0.00     0.004 A 
ATOM     10  C   UNL     1       5.439   1.945  -0.365  1.00  0.00     0.000 A 
ATOM     11  C   UNL     1       5.200   0.844   1.703  1.00  0.00     0.000 A 
ATOM     12  C   UNL     1       4.964   1.959   0.931  1.00  0.00     0.000 A 
ENDBRANCH   6   7
ENDBRANCH   1   6
TORSDOF 4
ENDMDL
MODEL 4
REMARK VINA RESULT:      -6.8      3.408      5.080
REMARK SMILES O=C(O)CCc1ccccc1
REMARK SMILES IDX 4 1 2 2 1 3 3 4 5 6 6 7 7 8 11 9 8 10 10 11 9 12
REMARK H PARENT 3 5
REMARK Flexibility Score: inf
ROOT
ATOM      1  C   UNL     1       4.990   1.778   0.726  1.00  0.00     0.127 C 
ENDROOT
BRANCH   1   2
ATOM      2  C   UNL     1       4.464   1.112   1.931  1.00  0.00     0.303 C 
ATOM      3  O   UNL     1       5.152   0.210   2.482  1.00  0.00    -0.252 OA
BRANCH   2   4
ATOM      4  O   UNL     1       3.223   1.449   2.490  1.00  0.00    -0.481 OA
ATOM      5  H   UNL     1       2.619   0.704   2.811  1.00  0.00     0.296 HD
ENDBRANCH   2   4
ENDBRANCH   1   2
BRANCH   1   6
ATOM      6  C   UNL     1       6.503   1.898   0.752  1.00  0.00     0.047 C 
BRANCH   6   7
ATOM      7  C   UNL     1       7.120   1.088  -0.331  1.00  0.00    -0.047 A 
ATOM      8  C   UNL     1       8.465   1.230  -0.643  1.00  0.00     0.004 A 
ATOM      9  C   UNL     1       6.405   0.172  -1.081  1.00  0.00     0.004 A 
ATOM     10  C   UNL     1       9.063   0.503  -1.647  1.00  0.00     0.000 A 
ATOM     11  C   UNL     1       7.005  -0.556  -2.086  1.00  0.00     0.000 A 
ATOM     12  C   UNL     1       8.339  -0.408  -2.390  1.00  0.00     0.000 A 
ENDBRANCH   6   7
ENDBRANCH   1   6
TORSDOF 4
ENDMDL
MODEL 5
REMARK VINA RESULT:      -6.6      3.827      4.990
REMARK SMILES O=C(O)CCc1ccccc1
REMARK SMILES IDX 4 1 2 2 1 3 3 4 5 6 6 7 7 8 11 9 8 10 10 11 9 12
REMARK H PARENT 3 5
REMARK Flexibility Score: inf
ROOT
ATOM      1  C   UNL     1       5.457   2.782   0.063  1.00  0.00     0.127 C 
ENDROOT
BRANCH   1   2
ATOM      2  C   UNL     1       6.234   3.765   0.839  1.00  0.00     0.303 C 
ATOM      3  O   UNL     1       6.218   3.701   2.099  1.00  0.00    -0.252 OA
BRANCH   2   4
ATOM      4  O   UNL     1       6.993   4.772   0.225  1.00  0.00    -0.481 OA
ATOM      5  H   UNL     1       7.956   4.891   0.507  1.00  0.00     0.296 HD
ENDBRANCH   2   4
ENDBRANCH   1   2
BRANCH   1   6
ATOM      6  C   UNL     1       4.875   1.689   0.941  1.00  0.00     0.047 C 
BRANCH   6   7
ATOM      7  C   UNL     1       5.735   0.477   0.924  1.00  0.00    -0.047 A 
ATOM      8  C   UNL     1       5.802  -0.359   2.029  1.00  0.00     0.004 A 
ATOM      9  C   UNL     1       6.510   0.125  -0.166  1.00  0.00     0.004 A 
ATOM     10  C   UNL     1       6.596  -1.483   2.048  1.00  0.00     0.000 A 
ATOM     11  C   UNL     1       7.306  -1.001  -0.145  1.00  0.00     0.000 A 
ATOM     12  C   UNL     1       7.367  -1.825   0.956  1.00  0.00     0.000 A 
ENDBRANCH   6   7
ENDBRANCH   1   6
TORSDOF 4
ENDMDL
