@<TRIPOS>MOLECULE
/home/cewinharhar/GITHUB/reincatalyze/data/processed/docking_pred/2023-Apr-25-2248_maxeplen10_maxtrainstep1000_exh16_gamma099_lrac3e-4_lrcr1e-3/a8cbf1bb962d04eb60783bb2dc55df042853f03a_ligand_2.pdbqt
 12 12 0 0 0
SMALL
GASTEIGER

@<TRIPOS>ATOM
      1  C          7.3220   -1.2690   -2.1370 C.3     1  UNL1        0.1270
      2  C          8.7430   -1.3480   -2.5170 C.2     1  UNL1        0.3030
      3  O          9.5360   -0.4550   -2.1120 O.2     1  UNL1       -0.2520
      4  O          9.2480   -2.3860   -3.3150 O.3     1  UNL1       -0.4810
      5  H          9.9190   -3.0240   -2.9090 H       1  UNL1        0.2960
      6  C          7.1180   -1.4250   -0.6410 C.3     1  UNL1        0.0470
      7  C          6.3660   -0.2710   -0.0830 C.2     1  UNL1       -0.0470
      8  C          6.1230    0.8560   -0.8560 C.2     1  UNL1        0.0040
      9  C          5.8850   -0.2470    1.2130 C.2     1  UNL1        0.0040
     10  C          5.4390    1.9450   -0.3650 C.2     1  UNL1        0.0000
     11  C          5.2000    0.8440    1.7030 C.2     1  UNL1        0.0000
     12  C          4.9640    1.9590    0.9310 C.2     1  UNL1        0.0000
@<TRIPOS>BOND
     1     4     5    1
     2     4     2    1
     3     2     1    1
     4     2     3    2
     5     1     6    1
     6     8    10    1
     7     8     7    2
     8     6     7    1
     9    10    12    2
    10     7     9    1
    11    12    11    1
    12     9    11    2
