@<TRIPOS>MOLECULE
/home/cewinharhar/GITHUB/reincatalyze/data/processed/docking_pred/2023-Apr-25-2248_maxeplen10_maxtrainstep1000_exh16_gamma099_lrac3e-4_lrcr1e-3/a8cbf1bb962d04eb60783bb2dc55df042853f03a_ligand_2.pdbqt
 12 12 0 0 0
SMALL
GASTEIGER

@<TRIPOS>ATOM
      1  C          8.4370   -0.6070   -2.2110 C.3     1  UNL1        0.1270
      2  C          8.4860   -1.9010   -2.9140 C.2     1  UNL1        0.3030
      3  O          9.5980   -2.4800   -3.0520 O.2     1  UNL1       -0.2520
      4  O          7.3370   -2.5140   -3.4340 O.3     1  UNL1       -0.4810
      5  H          6.8260   -3.1600   -2.8470 H       1  UNL1        0.2960
      6  C          7.0410   -0.0090   -2.2050 C.3     1  UNL1        0.0470
      7  C          6.5060    0.0830   -0.8220 C.2     1  UNL1       -0.0470
      8  C          5.8720    1.2360   -0.3840 C.2     1  UNL1        0.0040
      9  C          6.6160   -0.9490    0.0930 C.2     1  UNL1        0.0040
     10  C          5.3750    1.3560    0.8940 C.2     1  UNL1        0.0000
     11  C          6.1180   -0.8270    1.3720 C.2     1  UNL1        0.0000
     12  C          5.4900    0.3220    1.8000 C.2     1  UNL1        0.0000
@<TRIPOS>BOND
     1     4     2    1
     2     4     5    1
     3     3     2    2
     4     2     1    1
     5     1     6    1
     6     6     7    1
     7     7     8    2
     8     7     9    1
     9     8    10    1
    10     9    11    2
    11    10    12    2
    12    11    12    1
