MODEL 1
REMARK VINA RESULT:      -7.2      0.000      0.000
REMARK SMILES O=C(O)CCc1ccccc1
REMARK SMILES IDX 4 1 2 2 1 3 3 4 5 6 6 7 7 8 11 9 8 10 10 11 9 12
REMARK H PARENT 3 5
REMARK Flexibility Score: inf
ROOT
ATOM      1  C   UNL     1       8.378  -0.652  -2.123  1.00  0.00     0.127 C 
ENDROOT
BRANCH   1   2
ATOM      2  C   UNL     1       8.387  -1.906  -2.898  1.00  0.00     0.303 C 
ATOM      3  O   UNL     1       7.290  -2.413  -3.255  1.00  0.00    -0.252 OA
BRANCH   2   4
ATOM      4  O   UNL     1       9.578  -2.555  -3.255  1.00  0.00    -0.481 OA
ATOM      5  H   UNL     1       9.842  -3.391  -2.752  1.00  0.00     0.296 HD
ENDBRANCH   2   4
ENDBRANCH   1   2
BRANCH   1   6
ATOM      6  C   UNL     1       7.013   0.012  -2.124  1.00  0.00     0.047 C 
BRANCH   6   7
ATOM      7  C   UNL     1       6.467   0.110  -0.745  1.00  0.00    -0.047 A 
ATOM      8  C   UNL     1       6.602  -0.946   0.146  1.00  0.00     0.004 A 
ATOM      9  C   UNL     1       5.798   1.228  -0.282  1.00  0.00     0.004 A 
ATOM     10  C   UNL     1       6.099  -0.891   1.425  1.00  0.00     0.000 A 
ATOM     11  C   UNL     1       5.295   1.282   1.000  1.00  0.00     0.000 A 
ATOM     12  C   UNL     1       5.432   0.230   1.878  1.00  0.00     0.000 A 
ENDBRANCH   6   7
ENDBRANCH   1   6
TORSDOF 4
ENDMDL
MODEL 2
REMARK VINA RESULT:      -7.2      0.021      1.421
REMARK SMILES O=C(O)CCc1ccccc1
REMARK SMILES IDX 4 1 2 2 1 3 3 4 5 6 6 7 7 8 11 9 8 10 10 11 9 12
REMARK H PARENT 3 5
REMARK Flexibility Score: inf
ROOT
ATOM      1  C   UNL     1       8.378  -0.637  -2.145  1.00  0.00     0.127 C 
ENDROOT
BRANCH   1   2
ATOM      2  C   UNL     1       8.385  -1.901  -2.903  1.00  0.00     0.303 C 
ATOM      3  O   UNL     1       7.286  -2.413  -3.249  1.00  0.00    -0.252 OA
BRANCH   2   4
ATOM      4  O   UNL     1       9.575  -2.555  -3.255  1.00  0.00    -0.481 OA
ATOM      5  H   UNL     1       9.518  -3.387  -3.826  1.00  0.00     0.296 HD
ENDBRANCH   2   4
ENDBRANCH   1   2
BRANCH   1   6
ATOM      6  C   UNL     1       7.005   0.011  -2.123  1.00  0.00     0.047 C 
BRANCH   6   7
ATOM      7  C   UNL     1       6.465   0.068  -0.740  1.00  0.00    -0.047 A 
ATOM      8  C   UNL     1       5.800   1.198  -0.286  1.00  0.00     0.004 A 
ATOM      9  C   UNL     1       6.598  -0.974   0.159  1.00  0.00     0.004 A 
ATOM     10  C   UNL     1       5.297   1.286   0.992  1.00  0.00     0.000 A 
ATOM     11  C   UNL     1       6.094  -0.884   1.439  1.00  0.00     0.000 A 
ATOM     12  C   UNL     1       5.437   0.241   1.883  1.00  0.00     0.000 A 
ENDBRANCH   6   7
ENDBRANCH   1   6
TORSDOF 4
ENDMDL
MODEL 3
REMARK VINA RESULT:      -6.8      3.329      5.159
REMARK SMILES O=C(O)CCc1ccccc1
REMARK SMILES IDX 4 1 2 2 1 3 3 4 5 6 6 7 7 8 11 9 8 10 10 11 9 12
REMARK H PARENT 3 5
REMARK Flexibility Score: inf
ROOT
ATOM      1  C   UNL     1       5.008   1.788   0.739  1.00  0.00     0.127 C 
ENDROOT
BRANCH   1   2
ATOM      2  C   UNL     1       4.467   1.111   1.930  1.00  0.00     0.303 C 
ATOM      3  O   UNL     1       5.142   0.195   2.474  1.00  0.00    -0.252 OA
BRANCH   2   4
ATOM      4  O   UNL     1       3.224   1.452   2.484  1.00  0.00    -0.481 OA
ATOM      5  H   UNL     1       2.558   0.714   2.666  1.00  0.00     0.296 HD
ENDBRANCH   2   4
ENDBRANCH   1   2
BRANCH   1   6
ATOM      6  C   UNL     1       6.522   1.897   0.778  1.00  0.00     0.047 C 
BRANCH   6   7
ATOM      7  C   UNL     1       7.141   1.114  -0.324  1.00  0.00    -0.047 A 
ATOM      8  C   UNL     1       6.383   0.224  -1.072  1.00  0.00     0.004 A 
ATOM      9  C   UNL     1       8.480   1.216  -0.654  1.00  0.00     0.004 A 
ATOM     10  C   UNL     1       6.929  -0.522  -2.091  1.00  0.00     0.000 A 
ATOM     11  C   UNL     1       9.024   0.468  -1.675  1.00  0.00     0.000 A 
ATOM     12  C   UNL     1       8.267  -0.414  -2.412  1.00  0.00     0.000 A 
ENDBRANCH   6   7
ENDBRANCH   1   6
TORSDOF 4
ENDMDL
MODEL 4
REMARK VINA RESULT:      -6.8      1.093      1.657
REMARK SMILES O=C(O)CCc1ccccc1
REMARK SMILES IDX 4 1 2 2 1 3 3 4 5 6 6 7 7 8 11 9 8 10 10 11 9 12
REMARK H PARENT 3 5
REMARK Flexibility Score: inf
ROOT
ATOM      1  C   UNL     1       7.359  -1.333  -2.138  1.00  0.00     0.127 C 
ENDROOT
BRANCH   1   2
ATOM      2  C   UNL     1       8.798  -1.356  -2.456  1.00  0.00     0.303 C 
ATOM      3  O   UNL     1       9.256  -2.301  -3.154  1.00  0.00    -0.252 OA
BRANCH   2   4
ATOM      4  O   UNL     1       9.679  -0.360  -2.009  1.00  0.00    -0.481 OA
ATOM      5  H   UNL     1       9.359   0.285  -1.300  1.00  0.00     0.296 HD
ENDBRANCH   2   4
ENDBRANCH   1   2
BRANCH   1   6
ATOM      6  C   UNL     1       7.099  -1.467  -0.649  1.00  0.00     0.047 C 
BRANCH   6   7
ATOM      7  C   UNL     1       6.374  -0.280  -0.126  1.00  0.00    -0.047 A 
ATOM      8  C   UNL     1       5.893  -0.261   1.176  1.00  0.00     0.004 A 
ATOM      9  C   UNL     1       6.133   0.847  -0.891  1.00  0.00     0.004 A 
ATOM     10  C   UNL     1       5.209   0.819   1.686  1.00  0.00     0.000 A 
ATOM     11  C   UNL     1       5.449   1.928  -0.378  1.00  0.00     0.000 A 
ATOM     12  C   UNL     1       4.973   1.938   0.914  1.00  0.00     0.000 A 
ENDBRANCH   6   7
ENDBRANCH   1   6
TORSDOF 4
ENDMDL
MODEL 5
REMARK VINA RESULT:      -6.7      3.818      4.950
REMARK SMILES O=C(O)CCc1ccccc1
REMARK SMILES IDX 4 1 2 2 1 3 3 4 5 6 6 7 7 8 11 9 8 10 10 11 9 12
REMARK H PARENT 3 5
REMARK Flexibility Score: inf
ROOT
ATOM      1  C   UNL     1       5.533   2.948  -0.008  1.00  0.00     0.127 C 
ENDROOT
BRANCH   1   2
ATOM      2  C   UNL     1       6.291   3.920   0.800  1.00  0.00     0.303 C 
ATOM      3  O   UNL     1       7.011   4.774   0.215  1.00  0.00    -0.252 OA
BRANCH   2   4
ATOM      4  O   UNL     1       6.240   3.929   2.202  1.00  0.00    -0.481 OA
ATOM      5  H   UNL     1       7.102   4.043   2.716  1.00  0.00     0.296 HD
ENDBRANCH   2   4
ENDBRANCH   1   2
BRANCH   1   6
ATOM      6  C   UNL     1       4.855   1.894   0.849  1.00  0.00     0.047 C 
BRANCH   6   7
ATOM      7  C   UNL     1       5.668   0.652   0.909  1.00  0.00    -0.047 A 
ATOM      8  C   UNL     1       5.683  -0.130   2.056  1.00  0.00     0.004 A 
ATOM      9  C   UNL     1       6.448   0.216  -0.147  1.00  0.00     0.004 A 
ATOM     10  C   UNL     1       6.434  -1.279   2.146  1.00  0.00     0.000 A 
ATOM     11  C   UNL     1       7.199  -0.936  -0.055  1.00  0.00     0.000 A 
ATOM     12  C   UNL     1       7.210  -1.705   1.087  1.00  0.00     0.000 A 
ENDBRANCH   6   7
ENDBRANCH   1   6
TORSDOF 4
ENDMDL
