@<TRIPOS>MOLECULE
/home/cewinharhar/GITHUB/reincatalyze/data/processed/docking_pred/2023-Apr-25-2248_maxeplen10_maxtrainstep1000_exh16_gamma099_lrac3e-4_lrcr1e-3/a991e05863b38587be5f018959c733685726fb49_ligand_2.pdbqt
 12 12 0 0 0
SMALL
GASTEIGER

@<TRIPOS>ATOM
      1  C          5.5330    2.9480   -0.0080 C.3     1  UNL1        0.1270
      2  C          6.2910    3.9200    0.8000 C.2     1  UNL1        0.3030
      3  O          7.0110    4.7740    0.2150 O.2     1  UNL1       -0.2520
      4  O          6.2400    3.9290    2.2020 O.3     1  UNL1       -0.4810
      5  H          7.1020    4.0430    2.7160 H       1  UNL1        0.2960
      6  C          4.8550    1.8940    0.8490 C.3     1  UNL1        0.0470
      7  C          5.6680    0.6520    0.9090 C.2     1  UNL1       -0.0470
      8  C          5.6830   -0.1300    2.0560 C.2     1  UNL1        0.0040
      9  C          6.4480    0.2160   -0.1470 C.2     1  UNL1        0.0040
     10  C          6.4340   -1.2790    2.1460 C.2     1  UNL1        0.0000
     11  C          7.1990   -0.9360   -0.0550 C.2     1  UNL1        0.0000
     12  C          7.2100   -1.7050    1.0870 C.2     1  UNL1        0.0000
@<TRIPOS>BOND
     1     9    11    1
     2     9     7    2
     3    11    12    2
     4     1     2    1
     5     1     6    1
     6     3     2    2
     7     2     4    1
     8     6     7    1
     9     7     8    1
    10    12    10    1
    11     8    10    2
    12     4     5    1
