@<TRIPOS>MOLECULE
/home/cewinharhar/GITHUB/reincatalyze/data/processed/docking_pred/2023-Apr-25-2248_maxeplen10_maxtrainstep1000_exh16_gamma099_lrac3e-4_lrcr1e-3/a991e05863b38587be5f018959c733685726fb49_ligand_2.pdbqt
 12 12 0 0 0
SMALL
GASTEIGER

@<TRIPOS>ATOM
      1  C          8.3780   -0.6370   -2.1450 C.3     1  UNL1        0.1270
      2  C          8.3850   -1.9010   -2.9030 C.2     1  UNL1        0.3030
      3  O          7.2860   -2.4130   -3.2490 O.2     1  UNL1       -0.2520
      4  O          9.5750   -2.5550   -3.2550 O.3     1  UNL1       -0.4810
      5  H          9.5180   -3.3870   -3.8260 H       1  UNL1        0.2960
      6  C          7.0050    0.0110   -2.1230 C.3     1  UNL1        0.0470
      7  C          6.4650    0.0680   -0.7400 C.2     1  UNL1       -0.0470
      8  C          5.8000    1.1980   -0.2860 C.2     1  UNL1        0.0040
      9  C          6.5980   -0.9740    0.1590 C.2     1  UNL1        0.0040
     10  C          5.2970    1.2860    0.9920 C.2     1  UNL1        0.0000
     11  C          6.0940   -0.8840    1.4390 C.2     1  UNL1        0.0000
     12  C          5.4370    0.2410    1.8830 C.2     1  UNL1        0.0000
@<TRIPOS>BOND
     1     5     4    1
     2     4     2    1
     3     3     2    2
     4     2     1    1
     5     1     6    1
     6     6     7    1
     7     7     8    2
     8     7     9    1
     9     8    10    1
    10     9    11    2
    11    10    12    2
    12    11    12    1
