@<TRIPOS>MOLECULE
/home/cewinharhar/GITHUB/reincatalyze/data/processed/docking_pred/2023-Apr-25-2248_maxeplen10_maxtrainstep1000_exh16_gamma099_lrac3e-4_lrcr1e-3/a991e05863b38587be5f018959c733685726fb49_ligand_2.pdbqt
 12 12 0 0 0
SMALL
GASTEIGER

@<TRIPOS>ATOM
      1  C          5.0080    1.7880    0.7390 C.3     1  UNL1        0.1270
      2  C          4.4670    1.1110    1.9300 C.2     1  UNL1        0.3030
      3  O          5.1420    0.1950    2.4740 O.2     1  UNL1       -0.2520
      4  O          3.2240    1.4520    2.4840 O.3     1  UNL1       -0.4810
      5  H          2.5580    0.7140    2.6660 H       1  UNL1        0.2960
      6  C          6.5220    1.8970    0.7780 C.3     1  UNL1        0.0470
      7  C          7.1410    1.1140   -0.3240 C.2     1  UNL1       -0.0470
      8  C          6.3830    0.2240   -1.0720 C.2     1  UNL1        0.0040
      9  C          8.4800    1.2160   -0.6540 C.2     1  UNL1        0.0040
     10  C          6.9290   -0.5220   -2.0910 C.2     1  UNL1        0.0000
     11  C          9.0240    0.4680   -1.6750 C.2     1  UNL1        0.0000
     12  C          8.2670   -0.4140   -2.4120 C.2     1  UNL1        0.0000
@<TRIPOS>BOND
     1    12    10    2
     2    12    11    1
     3    10     8    1
     4    11     9    2
     5     8     7    2
     6     9     7    1
     7     7     6    1
     8     1     6    1
     9     1     2    1
    10     2     3    2
    11     2     4    1
    12     4     5    1
