MODEL 1
REMARK VINA RESULT:      -7.3      0.000      0.000
REMARK SMILES O=C(O)CCc1ccccc1
REMARK SMILES IDX 4 1 2 2 1 3 3 4 5 6 6 7 7 8 11 9 8 10 10 11 9 12
REMARK H PARENT 3 5
REMARK Flexibility Score: inf
ROOT
ATOM      1  C   UNL     1       8.380  -0.762  -1.992  1.00  0.00     0.127 C 
ENDROOT
BRANCH   1   2
ATOM      2  C   UNL     1       8.372  -1.960  -2.850  1.00  0.00     0.303 C 
ATOM      3  O   UNL     1       7.269  -2.405  -3.270  1.00  0.00    -0.252 OA
BRANCH   2   4
ATOM      4  O   UNL     1       9.551  -2.625  -3.218  1.00  0.00    -0.481 OA
ATOM      5  H   UNL     1      10.437  -2.233  -2.930  1.00  0.00     0.296 HD
ENDBRANCH   2   4
ENDBRANCH   1   2
BRANCH   1   6
ATOM      6  C   UNL     1       7.071   0.003  -2.062  1.00  0.00     0.047 C 
BRANCH   6   7
ATOM      7  C   UNL     1       6.458   0.135  -0.715  1.00  0.00    -0.047 A 
ATOM      8  C   UNL     1       5.752   1.278  -0.368  1.00  0.00     0.004 A 
ATOM      9  C   UNL     1       6.563  -0.845   0.255  1.00  0.00     0.004 A 
ATOM     10  C   UNL     1       5.182   1.435   0.875  1.00  0.00     0.000 A 
ATOM     11  C   UNL     1       5.992  -0.686   1.499  1.00  0.00     0.000 A 
ATOM     12  C   UNL     1       5.293   0.451   1.836  1.00  0.00     0.000 A 
ENDBRANCH   6   7
ENDBRANCH   1   6
TORSDOF 4
ENDMDL
MODEL 2
REMARK VINA RESULT:      -7.2      0.132      1.425
REMARK SMILES O=C(O)CCc1ccccc1
REMARK SMILES IDX 4 1 2 2 1 3 3 4 5 6 6 7 7 8 11 9 8 10 10 11 9 12
REMARK H PARENT 3 5
REMARK Flexibility Score: inf
ROOT
ATOM      1  C   UNL     1       8.410  -0.668  -2.096  1.00  0.00     0.127 C 
ENDROOT
BRANCH   1   2
ATOM      2  C   UNL     1       8.405  -1.915  -2.882  1.00  0.00     0.303 C 
ATOM      3  O   UNL     1       7.300  -2.417  -3.226  1.00  0.00    -0.252 OA
BRANCH   2   4
ATOM      4  O   UNL     1       9.588  -2.563  -3.264  1.00  0.00    -0.481 OA
ATOM      5  H   UNL     1       9.972  -3.269  -2.651  1.00  0.00     0.296 HD
ENDBRANCH   2   4
ENDBRANCH   1   2
BRANCH   1   6
ATOM      6  C   UNL     1       7.063   0.032  -2.121  1.00  0.00     0.047 C 
BRANCH   6   7
ATOM      7  C   UNL     1       6.491   0.135  -0.753  1.00  0.00    -0.047 A 
ATOM      8  C   UNL     1       6.611  -0.915   0.145  1.00  0.00     0.004 A 
ATOM      9  C   UNL     1       5.812   1.254  -0.308  1.00  0.00     0.004 A 
ATOM     10  C   UNL     1       6.084  -0.855   1.415  1.00  0.00     0.000 A 
ATOM     11  C   UNL     1       5.284   1.314   0.964  1.00  0.00     0.000 A 
ATOM     12  C   UNL     1       5.406   0.267   1.849  1.00  0.00     0.000 A 
ENDBRANCH   6   7
ENDBRANCH   1   6
TORSDOF 4
ENDMDL
MODEL 3
REMARK VINA RESULT:      -6.7      3.292      5.140
REMARK SMILES O=C(O)CCc1ccccc1
REMARK SMILES IDX 4 1 2 2 1 3 3 4 5 6 6 7 7 8 11 9 8 10 10 11 9 12
REMARK H PARENT 3 5
REMARK Flexibility Score: inf
ROOT
ATOM      1  C   UNL     1       5.039   1.696   0.694  1.00  0.00     0.127 C 
ENDROOT
BRANCH   1   2
ATOM      2  C   UNL     1       4.573   1.040   1.928  1.00  0.00     0.303 C 
ATOM      3  O   UNL     1       5.316   0.189   2.487  1.00  0.00    -0.252 OA
BRANCH   2   4
ATOM      4  O   UNL     1       3.328   1.330   2.505  1.00  0.00    -0.481 OA
ATOM      5  H   UNL     1       2.713   0.562   2.740  1.00  0.00     0.296 HD
ENDBRANCH   2   4
ENDBRANCH   1   2
BRANCH   1   6
ATOM      6  C   UNL     1       6.546   1.877   0.674  1.00  0.00     0.047 C 
BRANCH   6   7
ATOM      7  C   UNL     1       7.169   1.043  -0.386  1.00  0.00    -0.047 A 
ATOM      8  C   UNL     1       8.518   1.171  -0.687  1.00  0.00     0.004 A 
ATOM      9  C   UNL     1       6.456   0.118  -1.126  1.00  0.00     0.004 A 
ATOM     10  C   UNL     1       9.121   0.421  -1.670  1.00  0.00     0.000 A 
ATOM     11  C   UNL     1       7.062  -0.633  -2.111  1.00  0.00     0.000 A 
ATOM     12  C   UNL     1       8.400  -0.499  -2.404  1.00  0.00     0.000 A 
ENDBRANCH   6   7
ENDBRANCH   1   6
TORSDOF 4
ENDMDL
MODEL 4
REMARK VINA RESULT:      -6.6      1.935      2.239
REMARK SMILES O=C(O)CCc1ccccc1
REMARK SMILES IDX 4 1 2 2 1 3 3 4 5 6 6 7 7 8 11 9 8 10 10 11 9 12
REMARK H PARENT 3 5
REMARK Flexibility Score: inf
ROOT
ATOM      1  C   UNL     1       8.279   0.127  -2.188  1.00  0.00     0.127 C 
ENDROOT
BRANCH   1   2
ATOM      2  C   UNL     1       9.398   0.331  -1.250  1.00  0.00     0.303 C 
ATOM      3  O   UNL     1       9.469  -0.387  -0.216  1.00  0.00    -0.252 OA
BRANCH   2   4
ATOM      4  O   UNL     1      10.390   1.297  -1.469  1.00  0.00    -0.481 OA
ATOM      5  H   UNL     1      10.272   2.213  -1.058  1.00  0.00     0.296 HD
ENDBRANCH   2   4
ENDBRANCH   1   2
BRANCH   1   6
ATOM      6  C   UNL     1       7.144  -0.665  -1.563  1.00  0.00     0.047 C 
BRANCH   6   7
ATOM      7  C   UNL     1       6.370   0.173  -0.611  1.00  0.00    -0.047 A 
ATOM      8  C   UNL     1       5.843   1.393  -1.009  1.00  0.00     0.004 A 
ATOM      9  C   UNL     1       6.143  -0.200   0.701  1.00  0.00     0.004 A 
ATOM     10  C   UNL     1       5.131   2.197  -0.149  1.00  0.00     0.000 A 
ATOM     11  C   UNL     1       5.430   0.606   1.562  1.00  0.00     0.000 A 
ATOM     12  C   UNL     1       4.911   1.816   1.159  1.00  0.00     0.000 A 
ENDBRANCH   6   7
ENDBRANCH   1   6
TORSDOF 4
ENDMDL
MODEL 5
REMARK VINA RESULT:      -6.6      1.896      2.930
REMARK SMILES O=C(O)CCc1ccccc1
REMARK SMILES IDX 4 1 2 2 1 3 3 4 5 6 6 7 7 8 11 9 8 10 10 11 9 12
REMARK H PARENT 3 5
REMARK Flexibility Score: inf
ROOT
ATOM      1  C   UNL     1       8.157  -1.665   1.157  1.00  0.00     0.127 C 
ENDROOT
BRANCH   1   2
ATOM      2  C   UNL     1       8.500  -2.838   0.333  1.00  0.00     0.303 C 
ATOM      3  O   UNL     1       9.194  -3.760   0.841  1.00  0.00    -0.252 OA
BRANCH   2   4
ATOM      4  O   UNL     1       8.078  -2.966  -0.998  1.00  0.00    -0.481 OA
ATOM      5  H   UNL     1       7.582  -3.804  -1.270  1.00  0.00     0.296 HD
ENDBRANCH   2   4
ENDBRANCH   1   2
BRANCH   1   6
ATOM      6  C   UNL     1       6.662  -1.548   1.395  1.00  0.00     0.047 C 
BRANCH   6   7
ATOM      7  C   UNL     1       6.135  -0.268   0.854  1.00  0.00    -0.047 A 
ATOM      8  C   UNL     1       6.398   0.108  -0.456  1.00  0.00     0.004 A 
ATOM      9  C   UNL     1       5.378   0.609   1.609  1.00  0.00     0.004 A 
ATOM     10  C   UNL     1       5.933   1.291  -0.983  1.00  0.00     0.000 A 
ATOM     11  C   UNL     1       4.913   1.794   1.079  1.00  0.00     0.000 A 
ATOM     12  C   UNL     1       5.179   2.160  -0.220  1.00  0.00     0.000 A 
ENDBRANCH   6   7
ENDBRANCH   1   6
TORSDOF 4
ENDMDL
