@<TRIPOS>MOLECULE
/home/cewinharhar/GITHUB/reincatalyze/data/processed/docking_pred/2023-Apr-25-2248_maxeplen10_maxtrainstep1000_exh16_gamma099_lrac3e-4_lrcr1e-3/a9d08a951453574d65a810177cdd831b7fbb923c_ligand_2.pdbqt
 12 12 0 0 0
SMALL
GASTEIGER

@<TRIPOS>ATOM
      1  C          8.1570   -1.6650    1.1570 C.3     1  UNL1        0.1270
      2  C          8.5000   -2.8380    0.3330 C.2     1  UNL1        0.3030
      3  O          9.1940   -3.7600    0.8410 O.2     1  UNL1       -0.2520
      4  O          8.0780   -2.9660   -0.9980 O.3     1  UNL1       -0.4810
      5  H          7.5820   -3.8040   -1.2700 H       1  UNL1        0.2960
      6  C          6.6620   -1.5480    1.3950 C.3     1  UNL1        0.0470
      7  C          6.1350   -0.2680    0.8540 C.2     1  UNL1       -0.0470
      8  C          6.3980    0.1080   -0.4560 C.2     1  UNL1        0.0040
      9  C          5.3780    0.6090    1.6090 C.2     1  UNL1        0.0040
     10  C          5.9330    1.2910   -0.9830 C.2     1  UNL1        0.0000
     11  C          4.9130    1.7940    1.0790 C.2     1  UNL1        0.0000
     12  C          5.1790    2.1600   -0.2200 C.2     1  UNL1        0.0000
@<TRIPOS>BOND
     1     5     4    1
     2     4     2    1
     3    10     8    1
     4    10    12    2
     5     8     7    2
     6    12    11    1
     7     2     3    2
     8     2     1    1
     9     7     6    1
    10     7     9    1
    11    11     9    2
    12     1     6    1
