@<TRIPOS>MOLECULE
/home/cewinharhar/GITHUB/reincatalyze/data/processed/docking_pred/2023-Apr-25-2248_maxeplen10_maxtrainstep1000_exh16_gamma099_lrac3e-4_lrcr1e-3/a9d08a951453574d65a810177cdd831b7fbb923c_ligand_2.pdbqt
 12 12 0 0 0
SMALL
GASTEIGER

@<TRIPOS>ATOM
      1  C          8.3800   -0.7620   -1.9920 C.3     1  UNL1        0.1270
      2  C          8.3720   -1.9600   -2.8500 C.2     1  UNL1        0.3030
      3  O          7.2690   -2.4050   -3.2700 O.2     1  UNL1       -0.2520
      4  O          9.5510   -2.6250   -3.2180 O.3     1  UNL1       -0.4810
      5  H         10.4370   -2.2330   -2.9300 H       1  UNL1        0.2960
      6  C          7.0710    0.0030   -2.0620 C.3     1  UNL1        0.0470
      7  C          6.4580    0.1350   -0.7150 C.2     1  UNL1       -0.0470
      8  C          5.7520    1.2780   -0.3680 C.2     1  UNL1        0.0040
      9  C          6.5630   -0.8450    0.2550 C.2     1  UNL1        0.0040
     10  C          5.1820    1.4350    0.8750 C.2     1  UNL1        0.0000
     11  C          5.9920   -0.6860    1.4990 C.2     1  UNL1        0.0000
     12  C          5.2930    0.4510    1.8360 C.2     1  UNL1        0.0000
@<TRIPOS>BOND
     1     3     2    2
     2     4     5    1
     3     4     2    1
     4     2     1    1
     5     6     1    1
     6     6     7    1
     7     7     8    2
     8     7     9    1
     9     8    10    1
    10     9    11    2
    11    10    12    2
    12    11    12    1
