@<TRIPOS>MOLECULE
/home/cewinharhar/GITHUB/reincatalyze/data/processed/docking_pred/2023-Apr-25-2248_maxeplen10_maxtrainstep1000_exh16_gamma099_lrac3e-4_lrcr1e-3/a9d08a951453574d65a810177cdd831b7fbb923c_ligand_2.pdbqt
 12 12 0 0 0
SMALL
GASTEIGER

@<TRIPOS>ATOM
      1  C          8.4100   -0.6680   -2.0960 C.3     1  UNL1        0.1270
      2  C          8.4050   -1.9150   -2.8820 C.2     1  UNL1        0.3030
      3  O          7.3000   -2.4170   -3.2260 O.2     1  UNL1       -0.2520
      4  O          9.5880   -2.5630   -3.2640 O.3     1  UNL1       -0.4810
      5  H          9.9720   -3.2690   -2.6510 H       1  UNL1        0.2960
      6  C          7.0630    0.0320   -2.1210 C.3     1  UNL1        0.0470
      7  C          6.4910    0.1350   -0.7530 C.2     1  UNL1       -0.0470
      8  C          6.6110   -0.9150    0.1450 C.2     1  UNL1        0.0040
      9  C          5.8120    1.2540   -0.3080 C.2     1  UNL1        0.0040
     10  C          6.0840   -0.8550    1.4150 C.2     1  UNL1        0.0000
     11  C          5.2840    1.3140    0.9640 C.2     1  UNL1        0.0000
     12  C          5.4060    0.2670    1.8490 C.2     1  UNL1        0.0000
@<TRIPOS>BOND
     1     4     2    1
     2     4     5    1
     3     3     2    2
     4     2     1    1
     5     6     1    1
     6     6     7    1
     7     7     9    2
     8     7     8    1
     9     9    11    1
    10     8    10    2
    11    11    12    2
    12    10    12    1
