@<TRIPOS>MOLECULE
/home/cewinharhar/GITHUB/reincatalyze/data/processed/docking_pred/2023-Apr-25-2248_maxeplen10_maxtrainstep1000_exh16_gamma099_lrac3e-4_lrcr1e-3/a9d08a951453574d65a810177cdd831b7fbb923c_ligand_2.pdbqt
 12 12 0 0 0
SMALL
GASTEIGER

@<TRIPOS>ATOM
      1  C          8.2790    0.1270   -2.1880 C.3     1  UNL1        0.1270
      2  C          9.3980    0.3310   -1.2500 C.2     1  UNL1        0.3030
      3  O          9.4690   -0.3870   -0.2160 O.2     1  UNL1       -0.2520
      4  O         10.3900    1.2970   -1.4690 O.3     1  UNL1       -0.4810
      5  H         10.2720    2.2130   -1.0580 H       1  UNL1        0.2960
      6  C          7.1440   -0.6650   -1.5630 C.3     1  UNL1        0.0470
      7  C          6.3700    0.1730   -0.6110 C.2     1  UNL1       -0.0470
      8  C          5.8430    1.3930   -1.0090 C.2     1  UNL1        0.0040
      9  C          6.1430   -0.2000    0.7010 C.2     1  UNL1        0.0040
     10  C          5.1310    2.1970   -0.1490 C.2     1  UNL1        0.0000
     11  C          5.4300    0.6060    1.5620 C.2     1  UNL1        0.0000
     12  C          4.9110    1.8160    1.1590 C.2     1  UNL1        0.0000
@<TRIPOS>BOND
     1     1     6    1
     2     1     2    1
     3     6     7    1
     4     4     2    1
     5     4     5    1
     6     2     3    2
     7     8     7    2
     8     8    10    1
     9     7     9    1
    10    10    12    2
    11     9    11    2
    12    12    11    1
