@<TRIPOS>MOLECULE
/home/cewinharhar/GITHUB/reincatalyze/data/processed/docking_pred/2023-Apr-25-2248_maxeplen10_maxtrainstep1000_exh16_gamma099_lrac3e-4_lrcr1e-3/a9d08a951453574d65a810177cdd831b7fbb923c_ligand_2.pdbqt
 12 12 0 0 0
SMALL
GASTEIGER

@<TRIPOS>ATOM
      1  C          5.0390    1.6960    0.6940 C.3     1  UNL1        0.1270
      2  C          4.5730    1.0400    1.9280 C.2     1  UNL1        0.3030
      3  O          5.3160    0.1890    2.4870 O.2     1  UNL1       -0.2520
      4  O          3.3280    1.3300    2.5050 O.3     1  UNL1       -0.4810
      5  H          2.7130    0.5620    2.7400 H       1  UNL1        0.2960
      6  C          6.5460    1.8770    0.6740 C.3     1  UNL1        0.0470
      7  C          7.1690    1.0430   -0.3860 C.2     1  UNL1       -0.0470
      8  C          8.5180    1.1710   -0.6870 C.2     1  UNL1        0.0040
      9  C          6.4560    0.1180   -1.1260 C.2     1  UNL1        0.0040
     10  C          9.1210    0.4210   -1.6700 C.2     1  UNL1        0.0000
     11  C          7.0620   -0.6330   -2.1110 C.2     1  UNL1        0.0000
     12  C          8.4000   -0.4990   -2.4040 C.2     1  UNL1        0.0000
@<TRIPOS>BOND
     1    12    11    2
     2    12    10    1
     3    11     9    1
     4    10     8    2
     5     9     7    2
     6     8     7    1
     7     7     6    1
     8     6     1    1
     9     1     2    1
    10     2     3    2
    11     2     4    1
    12     4     5    1
