@<TRIPOS>MOLECULE
/home/cewinharhar/GITHUB/reincatalyze/data/processed/docking_pred/2023-Apr-25-2248_maxeplen10_maxtrainstep1000_exh16_gamma099_lrac3e-4_lrcr1e-3/ab317eb7565d030be4138c7249420e244018cf00_ligand_2.pdbqt
 12 12 0 0 0
SMALL
GASTEIGER

@<TRIPOS>ATOM
      1  C          8.4090   -0.6800   -2.1000 C.3     1  UNL1        0.1270
      2  C          8.3970   -1.9310   -2.8780 C.2     1  UNL1        0.3030
      3  O          7.2920   -2.4070   -3.2540 O.2     1  UNL1       -0.2520
      4  O          9.5750   -2.6120   -3.2180 O.3     1  UNL1       -0.4810
      5  H          9.9010   -2.5660   -4.1740 H       1  UNL1        0.2960
      6  C          7.0660    0.0270   -2.1290 C.3     1  UNL1        0.0470
      7  C          6.4940    0.1390   -0.7620 C.2     1  UNL1       -0.0470
      8  C          6.6420   -0.8920    0.1550 C.2     1  UNL1        0.0040
      9  C          5.7870    1.2490   -0.3350 C.2     1  UNL1        0.0040
     10  C          6.1160   -0.8230    1.4240 C.2     1  UNL1        0.0000
     11  C          5.2600    1.3160    0.9370 C.2     1  UNL1        0.0000
     12  C          5.4100    0.2880    1.8400 C.2     1  UNL1        0.0000
@<TRIPOS>BOND
     1     5     4    1
     2     3     2    2
     3     4     2    1
     4     2     1    1
     5     6     1    1
     6     6     7    1
     7     7     9    2
     8     7     8    1
     9     9    11    1
    10     8    10    2
    11    11    12    2
    12    10    12    1
