@<TRIPOS>MOLECULE
/home/cewinharhar/GITHUB/reincatalyze/data/processed/docking_pred/2023-Apr-25-2248_maxeplen10_maxtrainstep1000_exh16_gamma099_lrac3e-4_lrcr1e-3/ab317eb7565d030be4138c7249420e244018cf00_ligand_2.pdbqt
 12 12 0 0 0
SMALL
GASTEIGER

@<TRIPOS>ATOM
      1  C          8.2790    0.1050   -2.1880 C.3     1  UNL1        0.1270
      2  C          9.3900    0.3540   -1.2530 C.2     1  UNL1        0.3030
      3  O          9.4940   -0.3620   -0.2200 O.2     1  UNL1       -0.2520
      4  O         10.3400    1.3620   -1.4720 O.3     1  UNL1       -0.4810
      5  H         11.2730    1.0940   -1.7540 H       1  UNL1        0.2960
      6  C          7.1530   -0.6840   -1.5430 C.3     1  UNL1        0.0470
      7  C          6.3670    0.1710   -0.6160 C.2     1  UNL1       -0.0470
      8  C          5.8370    1.3800   -1.0450 C.2     1  UNL1        0.0040
      9  C          6.1300   -0.1750    0.7020 C.2     1  UNL1        0.0040
     10  C          5.1140    2.1980   -0.2080 C.2     1  UNL1        0.0000
     11  C          5.4050    0.6460    1.5390 C.2     1  UNL1        0.0000
     12  C          4.8840    1.8440    1.1060 C.2     1  UNL1        0.0000
@<TRIPOS>BOND
     1     1     6    1
     2     1     2    1
     3     5     4    1
     4     6     7    1
     5     4     2    1
     6     2     3    2
     7     8     7    2
     8     8    10    1
     9     7     9    1
    10    10    12    2
    11     9    11    2
    12    12    11    1
