@<TRIPOS>MOLECULE
/home/cewinharhar/GITHUB/reincatalyze/data/processed/docking_pred/2023-Apr-25-2248_maxeplen10_maxtrainstep1000_exh16_gamma099_lrac3e-4_lrcr1e-3/ab317eb7565d030be4138c7249420e244018cf00_ligand_2.pdbqt
 12 12 0 0 0
SMALL
GASTEIGER

@<TRIPOS>ATOM
      1  C          7.8790   -2.3450    0.7040 C.3     1  UNL1        0.1270
      2  C          8.7530   -3.4580    0.2930 C.2     1  UNL1        0.3030
      3  O          9.6390   -3.8680    1.0910 O.2     1  UNL1       -0.2520
      4  O          8.6330   -4.0800   -0.9580 O.3     1  UNL1       -0.4810
      5  H          8.4470   -3.5040   -1.7680 H       1  UNL1        0.2960
      6  C          7.4870   -1.4600   -0.4650 C.3     1  UNL1        0.0470
      7  C          6.6190   -0.3390   -0.0180 C.2     1  UNL1       -0.0470
      8  C          6.0850   -0.3260    1.2620 C.2     1  UNL1        0.0040
      9  C          6.2930    0.7270   -0.8360 C.2     1  UNL1        0.0040
     10  C          5.2700    0.6920    1.7020 C.2     1  UNL1        0.0000
     11  C          5.4770    1.7460   -0.3940 C.2     1  UNL1        0.0000
     12  C          4.9500    1.7520    0.8770 C.2     1  UNL1        0.0000
@<TRIPOS>BOND
     1     5     4    1
     2     4     2    1
     3     9    11    1
     4     9     7    2
     5     6     7    1
     6     6     1    1
     7    11    12    2
     8     7     8    1
     9     2     1    1
    10     2     3    2
    11    12    10    1
    12     8    10    2
