@<TRIPOS>MOLECULE
/home/cewinharhar/GITHUB/reincatalyze/data/processed/docking_pred/2023-Apr-25-2248_maxeplen10_maxtrainstep1000_exh16_gamma099_lrac3e-4_lrcr1e-3/ab317eb7565d030be4138c7249420e244018cf00_ligand_2.pdbqt
 12 12 0 0 0
SMALL
GASTEIGER

@<TRIPOS>ATOM
      1  C          8.4290   -0.6760   -2.1000 C.3     1  UNL1        0.1270
      2  C          8.4120   -1.9250   -2.8830 C.2     1  UNL1        0.3030
      3  O          7.3020   -2.4180   -3.2230 O.2     1  UNL1       -0.2520
      4  O          9.5880   -2.5860   -3.2640 O.3     1  UNL1       -0.4810
      5  H         10.1490   -3.0260   -2.5470 H       1  UNL1        0.2960
      6  C          7.0840    0.0280   -2.1130 C.3     1  UNL1        0.0470
      7  C          6.5040    0.0930   -0.7470 C.2     1  UNL1       -0.0470
      8  C          5.8180    1.2220   -0.3220 C.2     1  UNL1        0.0040
      9  C          6.6200   -0.9400    0.1660 C.2     1  UNL1        0.0040
     10  C          5.2790    1.3180    0.9400 C.2     1  UNL1        0.0000
     11  C          6.0790   -0.8430    1.4300 C.2     1  UNL1        0.0000
     12  C          5.4010    0.2810    1.8440 C.2     1  UNL1        0.0000
@<TRIPOS>BOND
     1     4     2    1
     2     4     5    1
     3     3     2    2
     4     2     1    1
     5     6     1    1
     6     6     7    1
     7     7     8    2
     8     7     9    1
     9     8    10    1
    10     9    11    2
    11    10    12    2
    12    11    12    1
