MODEL 1
REMARK VINA RESULT:      -7.3      0.000      0.000
REMARK SMILES O=C(O)CCc1ccccc1
REMARK SMILES IDX 4 1 2 2 1 3 3 4 5 6 6 7 7 8 11 9 8 10 10 11 9 12
REMARK H PARENT 3 5
REMARK Flexibility Score: inf
ROOT
ATOM      1  C   UNL     1       8.429  -0.676  -2.100  1.00  0.00     0.127 C 
ENDROOT
BRANCH   1   2
ATOM      2  C   UNL     1       8.412  -1.925  -2.883  1.00  0.00     0.303 C 
ATOM      3  O   UNL     1       7.302  -2.418  -3.223  1.00  0.00    -0.252 OA
BRANCH   2   4
ATOM      4  O   UNL     1       9.588  -2.586  -3.264  1.00  0.00    -0.481 OA
ATOM      5  H   UNL     1      10.149  -3.026  -2.547  1.00  0.00     0.296 HD
ENDBRANCH   2   4
ENDBRANCH   1   2
BRANCH   1   6
ATOM      6  C   UNL     1       7.084   0.028  -2.113  1.00  0.00     0.047 C 
BRANCH   6   7
ATOM      7  C   UNL     1       6.504   0.093  -0.747  1.00  0.00    -0.047 A 
ATOM      8  C   UNL     1       5.818   1.222  -0.322  1.00  0.00     0.004 A 
ATOM      9  C   UNL     1       6.620  -0.940   0.166  1.00  0.00     0.004 A 
ATOM     10  C   UNL     1       5.279   1.318   0.940  1.00  0.00     0.000 A 
ATOM     11  C   UNL     1       6.079  -0.843   1.430  1.00  0.00     0.000 A 
ATOM     12  C   UNL     1       5.401   0.281   1.844  1.00  0.00     0.000 A 
ENDBRANCH   6   7
ENDBRANCH   1   6
TORSDOF 4
ENDMDL
MODEL 2
REMARK VINA RESULT:      -7.2      0.037      1.421
REMARK SMILES O=C(O)CCc1ccccc1
REMARK SMILES IDX 4 1 2 2 1 3 3 4 5 6 6 7 7 8 11 9 8 10 10 11 9 12
REMARK H PARENT 3 5
REMARK Flexibility Score: inf
ROOT
ATOM      1  C   UNL     1       8.409  -0.680  -2.100  1.00  0.00     0.127 C 
ENDROOT
BRANCH   1   2
ATOM      2  C   UNL     1       8.397  -1.931  -2.878  1.00  0.00     0.303 C 
ATOM      3  O   UNL     1       7.292  -2.407  -3.254  1.00  0.00    -0.252 OA
BRANCH   2   4
ATOM      4  O   UNL     1       9.575  -2.612  -3.218  1.00  0.00    -0.481 OA
ATOM      5  H   UNL     1       9.901  -2.566  -4.174  1.00  0.00     0.296 HD
ENDBRANCH   2   4
ENDBRANCH   1   2
BRANCH   1   6
ATOM      6  C   UNL     1       7.066   0.027  -2.129  1.00  0.00     0.047 C 
BRANCH   6   7
ATOM      7  C   UNL     1       6.494   0.139  -0.762  1.00  0.00    -0.047 A 
ATOM      8  C   UNL     1       6.642  -0.892   0.155  1.00  0.00     0.004 A 
ATOM      9  C   UNL     1       5.787   1.249  -0.335  1.00  0.00     0.004 A 
ATOM     10  C   UNL     1       6.116  -0.823   1.424  1.00  0.00     0.000 A 
ATOM     11  C   UNL     1       5.260   1.316   0.937  1.00  0.00     0.000 A 
ATOM     12  C   UNL     1       5.410   0.288   1.840  1.00  0.00     0.000 A 
ENDBRANCH   6   7
ENDBRANCH   1   6
TORSDOF 4
ENDMDL
MODEL 3
REMARK VINA RESULT:      -6.8      3.315      5.164
REMARK SMILES O=C(O)CCc1ccccc1
REMARK SMILES IDX 4 1 2 2 1 3 3 4 5 6 6 7 7 8 11 9 8 10 10 11 9 12
REMARK H PARENT 3 5
REMARK Flexibility Score: inf
ROOT
ATOM      1  C   UNL     1       5.000   1.781   0.706  1.00  0.00     0.127 C 
ENDROOT
BRANCH   1   2
ATOM      2  C   UNL     1       4.476   1.114   1.911  1.00  0.00     0.303 C 
ATOM      3  O   UNL     1       5.162   0.208   2.457  1.00  0.00    -0.252 OA
BRANCH   2   4
ATOM      4  O   UNL     1       3.237   1.453   2.475  1.00  0.00    -0.481 OA
ATOM      5  H   UNL     1       3.205   2.194   3.162  1.00  0.00     0.296 HD
ENDBRANCH   2   4
ENDBRANCH   1   2
BRANCH   1   6
ATOM      6  C   UNL     1       6.511   1.924   0.741  1.00  0.00     0.047 C 
BRANCH   6   7
ATOM      7  C   UNL     1       7.146   1.124  -0.338  1.00  0.00    -0.047 A 
ATOM      8  C   UNL     1       6.396   0.235  -1.096  1.00  0.00     0.004 A 
ATOM      9  C   UNL     1       8.493   1.209  -0.638  1.00  0.00     0.004 A 
ATOM     10  C   UNL     1       6.957  -0.527  -2.094  1.00  0.00     0.000 A 
ATOM     11  C   UNL     1       9.053   0.444  -1.639  1.00  0.00     0.000 A 
ATOM     12  C   UNL     1       8.303  -0.436  -2.385  1.00  0.00     0.000 A 
ENDBRANCH   6   7
ENDBRANCH   1   6
TORSDOF 4
ENDMDL
MODEL 4
REMARK VINA RESULT:      -6.6      1.948      2.285
REMARK SMILES O=C(O)CCc1ccccc1
REMARK SMILES IDX 4 1 2 2 1 3 3 4 5 6 6 7 7 8 11 9 8 10 10 11 9 12
REMARK H PARENT 3 5
REMARK Flexibility Score: inf
ROOT
ATOM      1  C   UNL     1       8.279   0.105  -2.188  1.00  0.00     0.127 C 
ENDROOT
BRANCH   1   2
ATOM      2  C   UNL     1       9.390   0.354  -1.253  1.00  0.00     0.303 C 
ATOM      3  O   UNL     1       9.494  -0.362  -0.220  1.00  0.00    -0.252 OA
BRANCH   2   4
ATOM      4  O   UNL     1      10.340   1.362  -1.472  1.00  0.00    -0.481 OA
ATOM      5  H   UNL     1      11.273   1.094  -1.754  1.00  0.00     0.296 HD
ENDBRANCH   2   4
ENDBRANCH   1   2
BRANCH   1   6
ATOM      6  C   UNL     1       7.153  -0.684  -1.543  1.00  0.00     0.047 C 
BRANCH   6   7
ATOM      7  C   UNL     1       6.367   0.171  -0.616  1.00  0.00    -0.047 A 
ATOM      8  C   UNL     1       5.837   1.380  -1.045  1.00  0.00     0.004 A 
ATOM      9  C   UNL     1       6.130  -0.175   0.702  1.00  0.00     0.004 A 
ATOM     10  C   UNL     1       5.114   2.198  -0.208  1.00  0.00     0.000 A 
ATOM     11  C   UNL     1       5.405   0.646   1.539  1.00  0.00     0.000 A 
ATOM     12  C   UNL     1       4.884   1.844   1.106  1.00  0.00     0.000 A 
ENDBRANCH   6   7
ENDBRANCH   1   6
TORSDOF 4
ENDMDL
MODEL 5
REMARK VINA RESULT:      -6.6      2.074      2.820
REMARK SMILES O=C(O)CCc1ccccc1
REMARK SMILES IDX 4 1 2 2 1 3 3 4 5 6 6 7 7 8 11 9 8 10 10 11 9 12
REMARK H PARENT 3 5
REMARK Flexibility Score: inf
ROOT
ATOM      1  C   UNL     1       7.879  -2.345   0.704  1.00  0.00     0.127 C 
ENDROOT
BRANCH   1   2
ATOM      2  C   UNL     1       8.753  -3.458   0.293  1.00  0.00     0.303 C 
ATOM      3  O   UNL     1       9.639  -3.868   1.091  1.00  0.00    -0.252 OA
BRANCH   2   4
ATOM      4  O   UNL     1       8.633  -4.080  -0.958  1.00  0.00    -0.481 OA
ATOM      5  H   UNL     1       8.447  -3.504  -1.768  1.00  0.00     0.296 HD
ENDBRANCH   2   4
ENDBRANCH   1   2
BRANCH   1   6
ATOM      6  C   UNL     1       7.487  -1.460  -0.465  1.00  0.00     0.047 C 
BRANCH   6   7
ATOM      7  C   UNL     1       6.619  -0.339  -0.018  1.00  0.00    -0.047 A 
ATOM      8  C   UNL     1       6.085  -0.326   1.262  1.00  0.00     0.004 A 
ATOM      9  C   UNL     1       6.293   0.727  -0.836  1.00  0.00     0.004 A 
ATOM     10  C   UNL     1       5.270   0.692   1.702  1.00  0.00     0.000 A 
ATOM     11  C   UNL     1       5.477   1.746  -0.394  1.00  0.00     0.000 A 
ATOM     12  C   UNL     1       4.950   1.752   0.877  1.00  0.00     0.000 A 
ENDBRANCH   6   7
ENDBRANCH   1   6
TORSDOF 4
ENDMDL
