@<TRIPOS>MOLECULE
/home/cewinharhar/GITHUB/reincatalyze/data/processed/docking_pred/2023-Apr-25-2248_maxeplen10_maxtrainstep1000_exh16_gamma099_lrac3e-4_lrcr1e-3/ab317eb7565d030be4138c7249420e244018cf00_ligand_2.pdbqt
 12 12 0 0 0
SMALL
GASTEIGER

@<TRIPOS>ATOM
      1  C          5.0000    1.7810    0.7060 C.3     1  UNL1        0.1270
      2  C          4.4760    1.1140    1.9110 C.2     1  UNL1        0.3030
      3  O          5.1620    0.2080    2.4570 O.2     1  UNL1       -0.2520
      4  O          3.2370    1.4530    2.4750 O.3     1  UNL1       -0.4810
      5  H          3.2050    2.1940    3.1620 H       1  UNL1        0.2960
      6  C          6.5110    1.9240    0.7410 C.3     1  UNL1        0.0470
      7  C          7.1460    1.1240   -0.3380 C.2     1  UNL1       -0.0470
      8  C          6.3960    0.2350   -1.0960 C.2     1  UNL1        0.0040
      9  C          8.4930    1.2090   -0.6380 C.2     1  UNL1        0.0040
     10  C          6.9570   -0.5270   -2.0940 C.2     1  UNL1        0.0000
     11  C          9.0530    0.4440   -1.6390 C.2     1  UNL1        0.0000
     12  C          8.3030   -0.4360   -2.3850 C.2     1  UNL1        0.0000
@<TRIPOS>BOND
     1    12    10    2
     2    12    11    1
     3    10     8    1
     4    11     9    2
     5     8     7    2
     6     9     7    1
     7     7     6    1
     8     1     6    1
     9     1     2    1
    10     2     3    2
    11     2     4    1
    12     4     5    1
