@<TRIPOS>MOLECULE
/home/cewinharhar/GITHUB/reincatalyze/data/processed/docking_pred/2023-Apr-25-2248_maxeplen10_maxtrainstep1000_exh16_gamma099_lrac3e-4_lrcr1e-3/ab5903e155d5198269deee73f32ad6fb308dffee_ligand_2.pdbqt
 12 12 0 0 0
SMALL
GASTEIGER

@<TRIPOS>ATOM
      1  C          8.4120   -0.6690   -2.1120 C.3     1  UNL1        0.1270
      2  C          8.4040   -1.9220   -2.8880 C.2     1  UNL1        0.3030
      3  O          7.2990   -2.4180   -3.2390 O.2     1  UNL1       -0.2520
      4  O          9.5860   -2.5830   -3.2520 O.3     1  UNL1       -0.4810
      5  H         10.4330   -2.0400   -3.3530 H       1  UNL1        0.2960
      6  C          7.0590    0.0200   -2.1210 C.3     1  UNL1        0.0470
      7  C          6.4890    0.0910   -0.7500 C.2     1  UNL1       -0.0470
      8  C          5.8080    1.2220   -0.3240 C.2     1  UNL1        0.0040
      9  C          6.6100   -0.9390    0.1650 C.2     1  UNL1        0.0040
     10  C          5.2780    1.3230    0.9420 C.2     1  UNL1        0.0000
     11  C          6.0780   -0.8360    1.4330 C.2     1  UNL1        0.0000
     12  C          5.4050    0.2900    1.8480 C.2     1  UNL1        0.0000
@<TRIPOS>BOND
     1     5     4    1
     2     4     2    1
     3     3     2    2
     4     2     1    1
     5     6     1    1
     6     6     7    1
     7     7     8    2
     8     7     9    1
     9     8    10    1
    10     9    11    2
    11    10    12    2
    12    11    12    1
