@<TRIPOS>MOLECULE
/home/cewinharhar/GITHUB/reincatalyze/data/processed/docking_pred/2023-Apr-25-2248_maxeplen10_maxtrainstep1000_exh16_gamma099_lrac3e-4_lrcr1e-3/ab5903e155d5198269deee73f32ad6fb308dffee_ligand_2.pdbqt
 12 12 0 0 0
SMALL
GASTEIGER

@<TRIPOS>ATOM
      1  C          4.9850    1.7530    0.7040 C.3     1  UNL1        0.1270
      2  C          4.4670    1.0950    1.9160 C.2     1  UNL1        0.3030
      3  O          5.1540    0.1890    2.4620 O.2     1  UNL1       -0.2520
      4  O          3.2350    1.4420    2.4880 O.3     1  UNL1       -0.4810
      5  H          3.2050    2.2120    3.1430 H       1  UNL1        0.2960
      6  C          6.4940    1.9150    0.7390 C.3     1  UNL1        0.0470
      7  C          7.1400    1.1170   -0.3350 C.2     1  UNL1       -0.0470
      8  C          6.4040    0.2100   -1.0840 C.2     1  UNL1        0.0040
      9  C          8.4850    1.2210   -0.6390 C.2     1  UNL1        0.0040
     10  C          6.9740   -0.5520   -2.0770 C.2     1  UNL1        0.0000
     11  C          9.0560    0.4580   -1.6350 C.2     1  UNL1        0.0000
     12  C          8.3180   -0.4410   -2.3720 C.2     1  UNL1        0.0000
@<TRIPOS>BOND
     1    12    10    2
     2    12    11    1
     3    10     8    1
     4    11     9    2
     5     8     7    2
     6     9     7    1
     7     7     6    1
     8     1     6    1
     9     1     2    1
    10     2     3    2
    11     2     4    1
    12     4     5    1
