@<TRIPOS>MOLECULE
/home/cewinharhar/GITHUB/reincatalyze/data/processed/docking_pred/2023-Apr-25-2248_maxeplen10_maxtrainstep1000_exh16_gamma099_lrac3e-4_lrcr1e-3/ab5903e155d5198269deee73f32ad6fb308dffee_ligand_2.pdbqt
 12 12 0 0 0
SMALL
GASTEIGER

@<TRIPOS>ATOM
      1  C          8.3870   -0.6500   -2.1250 C.3     1  UNL1        0.1270
      2  C          8.3970   -1.9100   -2.8890 C.2     1  UNL1        0.3030
      3  O          7.2990   -2.4210   -3.2400 O.2     1  UNL1       -0.2520
      4  O          9.5870   -2.5620   -3.2410 O.3     1  UNL1       -0.4810
      5  H         10.4580   -2.0530   -3.1660 H       1  UNL1        0.2960
      6  C          7.0230    0.0180   -2.1370 C.3     1  UNL1        0.0470
      7  C          6.4690    0.1220   -0.7620 C.2     1  UNL1       -0.0470
      8  C          6.6090   -0.9240    0.1380 C.2     1  UNL1        0.0040
      9  C          5.7870    1.2380   -0.3120 C.2     1  UNL1        0.0040
     10  C          6.0990   -0.8630    1.4150 C.2     1  UNL1        0.0000
     11  C          5.2760    1.2980    0.9660 C.2     1  UNL1        0.0000
     12  C          5.4190    0.2550    1.8540 C.2     1  UNL1        0.0000
@<TRIPOS>BOND
     1     4     5    1
     2     4     2    1
     3     3     2    2
     4     2     1    1
     5     6     1    1
     6     6     7    1
     7     7     9    2
     8     7     8    1
     9     9    11    1
    10     8    10    2
    11    11    12    2
    12    10    12    1
