@<TRIPOS>MOLECULE
/home/cewinharhar/GITHUB/reincatalyze/data/processed/docking_pred/2023-Apr-25-2248_maxeplen10_maxtrainstep1000_exh16_gamma099_lrac3e-4_lrcr1e-3/ab5903e155d5198269deee73f32ad6fb308dffee_ligand_2.pdbqt
 12 12 0 0 0
SMALL
GASTEIGER

@<TRIPOS>ATOM
      1  C          7.3470   -1.3730   -2.1720 C.3     1  UNL1        0.1270
      2  C          8.7730   -1.4070   -2.5410 C.2     1  UNL1        0.3030
      3  O          9.5240   -0.4640   -2.1700 O.2     1  UNL1       -0.2520
      4  O          9.3270   -2.4540   -3.2910 O.3     1  UNL1       -0.4810
      5  H          9.5360   -3.3260   -2.8240 H       1  UNL1        0.2960
      6  C          7.1390   -1.4940   -0.6730 C.3     1  UNL1        0.0470
      7  C          6.4090   -0.3150   -0.1390 C.2     1  UNL1       -0.0470
      8  C          5.9430   -0.3030    1.1680 C.2     1  UNL1        0.0040
      9  C          6.1490    0.8110   -0.8980 C.2     1  UNL1        0.0040
     10  C          5.2550    0.7690    1.6880 C.2     1  UNL1        0.0000
     11  C          5.4600    1.8850   -0.3750 C.2     1  UNL1        0.0000
     12  C          4.9990    1.8880    0.9220 C.2     1  UNL1        0.0000
@<TRIPOS>BOND
     1     4     5    1
     2     4     2    1
     3     2     1    1
     4     2     3    2
     5     1     6    1
     6     9    11    1
     7     9     7    2
     8     6     7    1
     9    11    12    2
    10     7     8    1
    11    12    10    1
    12     8    10    2
