MODEL 1
REMARK VINA RESULT:      -7.3      0.000      0.000
REMARK SMILES O=C(O)CCc1ccccc1
REMARK SMILES IDX 4 1 2 2 1 3 3 4 5 6 6 7 7 8 11 9 8 10 10 11 9 12
REMARK H PARENT 3 5
REMARK Flexibility Score: inf
ROOT
ATOM      1  C   UNL     1       8.412  -0.669  -2.112  1.00  0.00     0.127 C 
ENDROOT
BRANCH   1   2
ATOM      2  C   UNL     1       8.404  -1.922  -2.888  1.00  0.00     0.303 C 
ATOM      3  O   UNL     1       7.299  -2.418  -3.239  1.00  0.00    -0.252 OA
BRANCH   2   4
ATOM      4  O   UNL     1       9.586  -2.583  -3.252  1.00  0.00    -0.481 OA
ATOM      5  H   UNL     1      10.433  -2.040  -3.353  1.00  0.00     0.296 HD
ENDBRANCH   2   4
ENDBRANCH   1   2
BRANCH   1   6
ATOM      6  C   UNL     1       7.059   0.020  -2.121  1.00  0.00     0.047 C 
BRANCH   6   7
ATOM      7  C   UNL     1       6.489   0.091  -0.750  1.00  0.00    -0.047 A 
ATOM      8  C   UNL     1       5.808   1.222  -0.324  1.00  0.00     0.004 A 
ATOM      9  C   UNL     1       6.610  -0.939   0.165  1.00  0.00     0.004 A 
ATOM     10  C   UNL     1       5.278   1.323   0.942  1.00  0.00     0.000 A 
ATOM     11  C   UNL     1       6.078  -0.836   1.433  1.00  0.00     0.000 A 
ATOM     12  C   UNL     1       5.405   0.290   1.848  1.00  0.00     0.000 A 
ENDBRANCH   6   7
ENDBRANCH   1   6
TORSDOF 4
ENDMDL
MODEL 2
REMARK VINA RESULT:      -7.2      0.031      1.421
REMARK SMILES O=C(O)CCc1ccccc1
REMARK SMILES IDX 4 1 2 2 1 3 3 4 5 6 6 7 7 8 11 9 8 10 10 11 9 12
REMARK H PARENT 3 5
REMARK Flexibility Score: inf
ROOT
ATOM      1  C   UNL     1       8.387  -0.650  -2.125  1.00  0.00     0.127 C 
ENDROOT
BRANCH   1   2
ATOM      2  C   UNL     1       8.397  -1.910  -2.889  1.00  0.00     0.303 C 
ATOM      3  O   UNL     1       7.299  -2.421  -3.240  1.00  0.00    -0.252 OA
BRANCH   2   4
ATOM      4  O   UNL     1       9.587  -2.562  -3.241  1.00  0.00    -0.481 OA
ATOM      5  H   UNL     1      10.458  -2.053  -3.166  1.00  0.00     0.296 HD
ENDBRANCH   2   4
ENDBRANCH   1   2
BRANCH   1   6
ATOM      6  C   UNL     1       7.023   0.018  -2.137  1.00  0.00     0.047 C 
BRANCH   6   7
ATOM      7  C   UNL     1       6.469   0.122  -0.762  1.00  0.00    -0.047 A 
ATOM      8  C   UNL     1       6.609  -0.924   0.138  1.00  0.00     0.004 A 
ATOM      9  C   UNL     1       5.787   1.238  -0.312  1.00  0.00     0.004 A 
ATOM     10  C   UNL     1       6.099  -0.863   1.415  1.00  0.00     0.000 A 
ATOM     11  C   UNL     1       5.276   1.298   0.966  1.00  0.00     0.000 A 
ATOM     12  C   UNL     1       5.419   0.255   1.854  1.00  0.00     0.000 A 
ENDBRANCH   6   7
ENDBRANCH   1   6
TORSDOF 4
ENDMDL
MODEL 3
REMARK VINA RESULT:      -6.9      1.042      1.944
REMARK SMILES O=C(O)CCc1ccccc1
REMARK SMILES IDX 4 1 2 2 1 3 3 4 5 6 6 7 7 8 11 9 8 10 10 11 9 12
REMARK H PARENT 3 5
REMARK Flexibility Score: inf
ROOT
ATOM      1  C   UNL     1       7.347  -1.373  -2.172  1.00  0.00     0.127 C 
ENDROOT
BRANCH   1   2
ATOM      2  C   UNL     1       8.773  -1.407  -2.541  1.00  0.00     0.303 C 
ATOM      3  O   UNL     1       9.524  -0.464  -2.170  1.00  0.00    -0.252 OA
BRANCH   2   4
ATOM      4  O   UNL     1       9.327  -2.454  -3.291  1.00  0.00    -0.481 OA
ATOM      5  H   UNL     1       9.536  -3.326  -2.824  1.00  0.00     0.296 HD
ENDBRANCH   2   4
ENDBRANCH   1   2
BRANCH   1   6
ATOM      6  C   UNL     1       7.139  -1.494  -0.673  1.00  0.00     0.047 C 
BRANCH   6   7
ATOM      7  C   UNL     1       6.409  -0.315  -0.139  1.00  0.00    -0.047 A 
ATOM      8  C   UNL     1       5.943  -0.303   1.168  1.00  0.00     0.004 A 
ATOM      9  C   UNL     1       6.149   0.811  -0.898  1.00  0.00     0.004 A 
ATOM     10  C   UNL     1       5.255   0.769   1.688  1.00  0.00     0.000 A 
ATOM     11  C   UNL     1       5.460   1.885  -0.375  1.00  0.00     0.000 A 
ATOM     12  C   UNL     1       4.999   1.888   0.922  1.00  0.00     0.000 A 
ENDBRANCH   6   7
ENDBRANCH   1   6
TORSDOF 4
ENDMDL
MODEL 4
REMARK VINA RESULT:      -6.8      3.320      5.165
REMARK SMILES O=C(O)CCc1ccccc1
REMARK SMILES IDX 4 1 2 2 1 3 3 4 5 6 6 7 7 8 11 9 8 10 10 11 9 12
REMARK H PARENT 3 5
REMARK Flexibility Score: inf
ROOT
ATOM      1  C   UNL     1       4.985   1.753   0.704  1.00  0.00     0.127 C 
ENDROOT
BRANCH   1   2
ATOM      2  C   UNL     1       4.467   1.095   1.916  1.00  0.00     0.303 C 
ATOM      3  O   UNL     1       5.154   0.189   2.462  1.00  0.00    -0.252 OA
BRANCH   2   4
ATOM      4  O   UNL     1       3.235   1.442   2.488  1.00  0.00    -0.481 OA
ATOM      5  H   UNL     1       3.205   2.212   3.143  1.00  0.00     0.296 HD
ENDBRANCH   2   4
ENDBRANCH   1   2
BRANCH   1   6
ATOM      6  C   UNL     1       6.494   1.915   0.739  1.00  0.00     0.047 C 
BRANCH   6   7
ATOM      7  C   UNL     1       7.140   1.117  -0.335  1.00  0.00    -0.047 A 
ATOM      8  C   UNL     1       6.404   0.210  -1.084  1.00  0.00     0.004 A 
ATOM      9  C   UNL     1       8.485   1.221  -0.639  1.00  0.00     0.004 A 
ATOM     10  C   UNL     1       6.974  -0.552  -2.077  1.00  0.00     0.000 A 
ATOM     11  C   UNL     1       9.056   0.458  -1.635  1.00  0.00     0.000 A 
ATOM     12  C   UNL     1       8.318  -0.441  -2.372  1.00  0.00     0.000 A 
ENDBRANCH   6   7
ENDBRANCH   1   6
TORSDOF 4
ENDMDL
MODEL 5
REMARK VINA RESULT:      -6.5      2.079      2.626
REMARK SMILES O=C(O)CCc1ccccc1
REMARK SMILES IDX 4 1 2 2 1 3 3 4 5 6 6 7 7 8 11 9 8 10 10 11 9 12
REMARK H PARENT 3 5
REMARK Flexibility Score: inf
ROOT
ATOM      1  C   UNL     1       7.983  -2.305   0.737  1.00  0.00     0.127 C 
ENDROOT
BRANCH   1   2
ATOM      2  C   UNL     1       8.790  -3.459   0.299  1.00  0.00     0.303 C 
ATOM      3  O   UNL     1       9.678  -3.913   1.071  1.00  0.00    -0.252 OA
BRANCH   2   4
ATOM      4  O   UNL     1       8.602  -4.072  -0.947  1.00  0.00    -0.481 OA
ATOM      5  H   UNL     1       9.285  -3.908  -1.675  1.00  0.00     0.296 HD
ENDBRANCH   2   4
ENDBRANCH   1   2
BRANCH   1   6
ATOM      6  C   UNL     1       7.529  -1.447  -0.430  1.00  0.00     0.047 C 
BRANCH   6   7
ATOM      7  C   UNL     1       6.629  -0.357   0.029  1.00  0.00    -0.047 A 
ATOM      8  C   UNL     1       6.320   0.706  -0.808  1.00  0.00     0.004 A 
ATOM      9  C   UNL     1       6.068  -0.332   1.293  1.00  0.00     0.004 A 
ATOM     10  C   UNL     1       5.499   1.735  -0.409  1.00  0.00     0.000 A 
ATOM     11  C   UNL     1       5.245   0.700   1.691  1.00  0.00     0.000 A 
ATOM     12  C   UNL     1       4.944   1.751   0.855  1.00  0.00     0.000 A 
ENDBRANCH   6   7
ENDBRANCH   1   6
TORSDOF 4
ENDMDL
