@<TRIPOS>MOLECULE
/home/cewinharhar/GITHUB/reincatalyze/data/processed/docking_pred/2023-Apr-25-2248_maxeplen10_maxtrainstep1000_exh16_gamma099_lrac3e-4_lrcr1e-3/ab5903e155d5198269deee73f32ad6fb308dffee_ligand_2.pdbqt
 12 12 0 0 0
SMALL
GASTEIGER

@<TRIPOS>ATOM
      1  C          7.9830   -2.3050    0.7370 C.3     1  UNL1        0.1270
      2  C          8.7900   -3.4590    0.2990 C.2     1  UNL1        0.3030
      3  O          9.6780   -3.9130    1.0710 O.2     1  UNL1       -0.2520
      4  O          8.6020   -4.0720   -0.9470 O.3     1  UNL1       -0.4810
      5  H          9.2850   -3.9080   -1.6750 H       1  UNL1        0.2960
      6  C          7.5290   -1.4470   -0.4300 C.3     1  UNL1        0.0470
      7  C          6.6290   -0.3570    0.0290 C.2     1  UNL1       -0.0470
      8  C          6.3200    0.7060   -0.8080 C.2     1  UNL1        0.0040
      9  C          6.0680   -0.3320    1.2930 C.2     1  UNL1        0.0040
     10  C          5.4990    1.7350   -0.4090 C.2     1  UNL1        0.0000
     11  C          5.2450    0.7000    1.6910 C.2     1  UNL1        0.0000
     12  C          4.9440    1.7510    0.8550 C.2     1  UNL1        0.0000
@<TRIPOS>BOND
     1     5     4    1
     2     4     2    1
     3     8    10    1
     4     8     7    2
     5     6     7    1
     6     6     1    1
     7    10    12    2
     8     7     9    1
     9     2     1    1
    10     2     3    2
    11    12    11    1
    12     9    11    2
