@<TRIPOS>MOLECULE
/home/cewinharhar/GITHUB/reincatalyze/data/processed/docking_pred/2023-Apr-25-2248_maxeplen10_maxtrainstep1000_exh16_gamma099_lrac3e-4_lrcr1e-3/ab955c776f37f5544fae82246801d9a2769dfb79_ligand_2.pdbqt
 12 12 0 0 0
SMALL
GASTEIGER

@<TRIPOS>ATOM
      1  C          6.4060   -0.5600    2.7400 C.3     1  UNL1        0.1270
      2  C          7.1610   -1.5080    1.9020 C.2     1  UNL1        0.3030
      3  O          8.3220   -1.1970    1.5200 O.2     1  UNL1       -0.2520
      4  O          6.6340   -2.7480    1.5140 O.3     1  UNL1       -0.4810
      5  H          6.4510   -2.9100    0.5330 H       1  UNL1        0.2960
      6  C          5.2030    0.0150    2.0150 C.3     1  UNL1        0.0470
      7  C          5.5310    1.3250    1.3940 C.2     1  UNL1       -0.0470
      8  C          4.8590    1.7590    0.2600 C.2     1  UNL1        0.0040
      9  C          6.5110    2.1640    1.8920 C.2     1  UNL1        0.0040
     10  C          5.1470    2.9620   -0.3440 C.2     1  UNL1        0.0000
     11  C          6.7980    3.3680    1.2850 C.2     1  UNL1        0.0000
     12  C          6.1270    3.7920    0.1600 C.2     1  UNL1        0.0000
@<TRIPOS>BOND
     1    10    12    2
     2    10     8    1
     3    12    11    1
     4     8     7    2
     5     5     4    1
     6    11     9    2
     7     7     9    1
     8     7     6    1
     9     4     2    1
    10     3     2    2
    11     2     1    1
    12     6     1    1
