@<TRIPOS>MOLECULE
/home/cewinharhar/GITHUB/reincatalyze/data/processed/docking_pred/2023-Apr-25-2248_maxeplen10_maxtrainstep1000_exh16_gamma099_lrac3e-4_lrcr1e-3/ab955c776f37f5544fae82246801d9a2769dfb79_ligand_2.pdbqt
 12 12 0 0 0
SMALL
GASTEIGER

@<TRIPOS>ATOM
      1  C          8.4540   -6.3390   10.4110 C.3     1  UNL1        0.1270
      2  C          8.3400   -4.9630   10.9270 C.2     1  UNL1        0.3030
      3  O          7.6040   -4.1400   10.3180 O.2     1  UNL1       -0.2520
      4  O          9.0220   -4.5360   12.0760 O.3     1  UNL1       -0.4810
      5  H          8.9030   -3.5800   12.3800 H       1  UNL1        0.2960
      6  C          9.0330   -7.2920   11.4420 C.3     1  UNL1        0.0470
      7  C         10.3280   -7.8550   10.9790 C.2     1  UNL1       -0.0470
      8  C         11.3960   -7.0200   10.6820 C.2     1  UNL1        0.0040
      9  C         10.5380   -9.2110   10.8120 C.2     1  UNL1        0.0040
     10  C         12.6050   -7.5090   10.2410 C.2     1  UNL1        0.0000
     11  C         11.7490   -9.6990   10.3700 C.2     1  UNL1        0.0000
     12  C         12.8040   -8.8650   10.0760 C.2     1  UNL1        0.0000
@<TRIPOS>BOND
     1    12    10    2
     2    12    11    1
     3    10     8    1
     4     3     2    2
     5    11     9    2
     6     1     2    1
     7     1     6    1
     8     8     7    2
     9     9     7    1
    10     2     4    1
    11     7     6    1
    12     4     5    1
