MODEL 1
REMARK VINA RESULT:      -5.5      0.000      0.000
REMARK SMILES O=C(O)CCc1ccccc1
REMARK SMILES IDX 4 1 2 2 1 3 3 4 5 6 6 7 7 8 11 9 8 10 10 11 9 12
REMARK H PARENT 3 5
REMARK Flexibility Score: inf
ROOT
ATOM      1  C   UNL     1       6.406  -0.560   2.740  1.00  0.00     0.127 C 
ENDROOT
BRANCH   1   2
ATOM      2  C   UNL     1       7.161  -1.508   1.902  1.00  0.00     0.303 C 
ATOM      3  O   UNL     1       8.322  -1.197   1.520  1.00  0.00    -0.252 OA
BRANCH   2   4
ATOM      4  O   UNL     1       6.634  -2.748   1.514  1.00  0.00    -0.481 OA
ATOM      5  H   UNL     1       6.451  -2.910   0.533  1.00  0.00     0.296 HD
ENDBRANCH   2   4
ENDBRANCH   1   2
BRANCH   1   6
ATOM      6  C   UNL     1       5.203   0.015   2.015  1.00  0.00     0.047 C 
BRANCH   6   7
ATOM      7  C   UNL     1       5.531   1.325   1.394  1.00  0.00    -0.047 A 
ATOM      8  C   UNL     1       4.859   1.759   0.260  1.00  0.00     0.004 A 
ATOM      9  C   UNL     1       6.511   2.164   1.892  1.00  0.00     0.004 A 
ATOM     10  C   UNL     1       5.147   2.962  -0.344  1.00  0.00     0.000 A 
ATOM     11  C   UNL     1       6.798   3.368   1.285  1.00  0.00     0.000 A 
ATOM     12  C   UNL     1       6.127   3.792   0.160  1.00  0.00     0.000 A 
ENDBRANCH   6   7
ENDBRANCH   1   6
TORSDOF 4
ENDMDL
MODEL 2
REMARK VINA RESULT:      -5.5      0.042      1.421
REMARK SMILES O=C(O)CCc1ccccc1
REMARK SMILES IDX 4 1 2 2 1 3 3 4 5 6 6 7 7 8 11 9 8 10 10 11 9 12
REMARK H PARENT 3 5
REMARK Flexibility Score: inf
ROOT
ATOM      1  C   UNL     1       6.439  -0.549   2.707  1.00  0.00     0.127 C 
ENDROOT
BRANCH   1   2
ATOM      2  C   UNL     1       7.175  -1.532   1.893  1.00  0.00     0.303 C 
ATOM      3  O   UNL     1       8.337  -1.249   1.493  1.00  0.00    -0.252 OA
BRANCH   2   4
ATOM      4  O   UNL     1       6.628  -2.777   1.547  1.00  0.00    -0.481 OA
ATOM      5  H   UNL     1       6.667  -3.527   2.224  1.00  0.00     0.296 HD
ENDBRANCH   2   4
ENDBRANCH   1   2
BRANCH   1   6
ATOM      6  C   UNL     1       5.222  -0.001   1.983  1.00  0.00     0.047 C 
BRANCH   6   7
ATOM      7  C   UNL     1       5.526   1.309   1.348  1.00  0.00    -0.047 A 
ATOM      8  C   UNL     1       6.505   2.139   1.872  1.00  0.00     0.004 A 
ATOM      9  C   UNL     1       4.858   1.770   0.228  1.00  0.00     0.004 A 
ATOM     10  C   UNL     1       6.802   3.361   1.314  1.00  0.00     0.000 A 
ATOM     11  C   UNL     1       5.156   2.994  -0.330  1.00  0.00     0.000 A 
ATOM     12  C   UNL     1       6.129   3.813   0.197  1.00  0.00     0.000 A 
ENDBRANCH   6   7
ENDBRANCH   1   6
TORSDOF 4
ENDMDL
MODEL 3
REMARK VINA RESULT:      -3.7      2.962      4.736
REMARK SMILES O=C(O)CCc1ccccc1
REMARK SMILES IDX 4 1 2 2 1 3 3 4 5 6 6 7 7 8 11 9 8 10 10 11 9 12
REMARK H PARENT 3 5
REMARK Flexibility Score: inf
ROOT
ATOM      1  C   UNL     1       5.680   3.005   0.221  1.00  0.00     0.127 C 
ENDROOT
BRANCH   1   2
ATOM      2  C   UNL     1       6.378   4.102   0.915  1.00  0.00     0.303 C 
ATOM      3  O   UNL     1       7.240   4.775   0.285  1.00  0.00    -0.252 OA
BRANCH   2   4
ATOM      4  O   UNL     1       6.117   4.426   2.254  1.00  0.00    -0.481 OA
ATOM      5  H   UNL     1       5.669   5.309   2.459  1.00  0.00     0.296 HD
ENDBRANCH   2   4
ENDBRANCH   1   2
BRANCH   1   6
ATOM      6  C   UNL     1       4.830   2.177   1.168  1.00  0.00     0.047 C 
BRANCH   6   7
ATOM      7  C   UNL     1       5.515   0.906   1.524  1.00  0.00    -0.047 A 
ATOM      8  C   UNL     1       6.770   0.920   2.116  1.00  0.00     0.004 A 
ATOM      9  C   UNL     1       4.958  -0.337   1.283  1.00  0.00     0.004 A 
ATOM     10  C   UNL     1       7.434  -0.238   2.448  1.00  0.00     0.000 A 
ATOM     11  C   UNL     1       5.625  -1.496   1.616  1.00  0.00     0.000 A 
ATOM     12  C   UNL     1       6.870  -1.474   2.202  1.00  0.00     0.000 A 
ENDBRANCH   6   7
ENDBRANCH   1   6
TORSDOF 4
ENDMDL
MODEL 4
REMARK VINA RESULT:      -3.6     11.574     13.705
REMARK SMILES O=C(O)CCc1ccccc1
REMARK SMILES IDX 4 1 2 2 1 3 3 4 5 6 6 7 7 8 11 9 8 10 10 11 9 12
REMARK H PARENT 3 5
REMARK Flexibility Score: inf
ROOT
ATOM      1  C   UNL     1       8.454  -6.339  10.411  1.00  0.00     0.127 C 
ENDROOT
BRANCH   1   2
ATOM      2  C   UNL     1       8.340  -4.963  10.927  1.00  0.00     0.303 C 
ATOM      3  O   UNL     1       7.604  -4.140  10.318  1.00  0.00    -0.252 OA
BRANCH   2   4
ATOM      4  O   UNL     1       9.022  -4.536  12.076  1.00  0.00    -0.481 OA
ATOM      5  H   UNL     1       8.903  -3.580  12.380  1.00  0.00     0.296 HD
ENDBRANCH   2   4
ENDBRANCH   1   2
BRANCH   1   6
ATOM      6  C   UNL     1       9.033  -7.292  11.442  1.00  0.00     0.047 C 
BRANCH   6   7
ATOM      7  C   UNL     1      10.328  -7.855  10.979  1.00  0.00    -0.047 A 
ATOM      8  C   UNL     1      11.396  -7.020  10.682  1.00  0.00     0.004 A 
ATOM      9  C   UNL     1      10.538  -9.211  10.812  1.00  0.00     0.004 A 
ATOM     10  C   UNL     1      12.605  -7.509  10.241  1.00  0.00     0.000 A 
ATOM     11  C   UNL     1      11.749  -9.699  10.370  1.00  0.00     0.000 A 
ATOM     12  C   UNL     1      12.804  -8.865  10.076  1.00  0.00     0.000 A 
ENDBRANCH   6   7
ENDBRANCH   1   6
TORSDOF 4
ENDMDL
MODEL 5
REMARK VINA RESULT:      -3.5     11.523     13.562
REMARK SMILES O=C(O)CCc1ccccc1
REMARK SMILES IDX 4 1 2 2 1 3 3 4 5 6 6 7 7 8 11 9 8 10 10 11 9 12
REMARK H PARENT 3 5
REMARK Flexibility Score: inf
ROOT
ATOM      1  C   UNL     1       8.404  -6.037  10.352  1.00  0.00     0.127 C 
ENDROOT
BRANCH   1   2
ATOM      2  C   UNL     1       7.992  -4.805  11.048  1.00  0.00     0.303 C 
ATOM      3  O   UNL     1       7.503  -3.857  10.375  1.00  0.00    -0.252 OA
BRANCH   2   4
ATOM      4  O   UNL     1       8.123  -4.650  12.435  1.00  0.00    -0.481 OA
ATOM      5  H   UNL     1       8.952  -5.013  12.886  1.00  0.00     0.296 HD
ENDBRANCH   2   4
ENDBRANCH   1   2
BRANCH   1   6
ATOM      6  C   UNL     1       8.878  -7.109  11.317  1.00  0.00     0.047 C 
BRANCH   6   7
ATOM      7  C   UNL     1      10.207  -7.638  10.914  1.00  0.00    -0.047 A 
ATOM      8  C   UNL     1      10.432  -9.006  10.842  1.00  0.00     0.004 A 
ATOM      9  C   UNL     1      11.277  -6.818  10.605  1.00  0.00     0.004 A 
ATOM     10  C   UNL     1      11.654  -9.527  10.483  1.00  0.00     0.000 A 
ATOM     11  C   UNL     1      12.500  -7.342  10.246  1.00  0.00     0.000 A 
ATOM     12  C   UNL     1      12.716  -8.699  10.177  1.00  0.00     0.000 A 
ENDBRANCH   6   7
ENDBRANCH   1   6
TORSDOF 4
ENDMDL
