@<TRIPOS>MOLECULE
/home/cewinharhar/GITHUB/reincatalyze/data/processed/docking_pred/2023-Apr-25-2248_maxeplen10_maxtrainstep1000_exh16_gamma099_lrac3e-4_lrcr1e-3/ab955c776f37f5544fae82246801d9a2769dfb79_ligand_2.pdbqt
 12 12 0 0 0
SMALL
GASTEIGER

@<TRIPOS>ATOM
      1  C          5.6800    3.0050    0.2210 C.3     1  UNL1        0.1270
      2  C          6.3780    4.1020    0.9150 C.2     1  UNL1        0.3030
      3  O          7.2400    4.7750    0.2850 O.2     1  UNL1       -0.2520
      4  O          6.1170    4.4260    2.2540 O.3     1  UNL1       -0.4810
      5  H          5.6690    5.3090    2.4590 H       1  UNL1        0.2960
      6  C          4.8300    2.1770    1.1680 C.3     1  UNL1        0.0470
      7  C          5.5150    0.9060    1.5240 C.2     1  UNL1       -0.0470
      8  C          6.7700    0.9200    2.1160 C.2     1  UNL1        0.0040
      9  C          4.9580   -0.3370    1.2830 C.2     1  UNL1        0.0040
     10  C          7.4340   -0.2380    2.4480 C.2     1  UNL1        0.0000
     11  C          5.6250   -1.4960    1.6160 C.2     1  UNL1        0.0000
     12  C          6.8700   -1.4740    2.2020 C.2     1  UNL1        0.0000
@<TRIPOS>BOND
     1     1     2    1
     2     1     6    1
     3     3     2    2
     4     2     4    1
     5     6     7    1
     6     9     7    2
     7     9    11    1
     8     7     8    1
     9    11    12    2
    10     8    10    2
    11    12    10    1
    12     4     5    1
