@<TRIPOS>MOLECULE
/home/cewinharhar/GITHUB/reincatalyze/data/processed/docking_pred/2023-Apr-25-2248_maxeplen10_maxtrainstep1000_exh16_gamma099_lrac3e-4_lrcr1e-3/ab955c776f37f5544fae82246801d9a2769dfb79_ligand_2.pdbqt
 12 12 0 0 0
SMALL
GASTEIGER

@<TRIPOS>ATOM
      1  C          8.4040   -6.0370   10.3520 C.3     1  UNL1        0.1270
      2  C          7.9920   -4.8050   11.0480 C.2     1  UNL1        0.3030
      3  O          7.5030   -3.8570   10.3750 O.2     1  UNL1       -0.2520
      4  O          8.1230   -4.6500   12.4350 O.3     1  UNL1       -0.4810
      5  H          8.9520   -5.0130   12.8860 H       1  UNL1        0.2960
      6  C          8.8780   -7.1090   11.3170 C.3     1  UNL1        0.0470
      7  C         10.2070   -7.6380   10.9140 C.2     1  UNL1       -0.0470
      8  C         10.4320   -9.0060   10.8420 C.2     1  UNL1        0.0040
      9  C         11.2770   -6.8180   10.6050 C.2     1  UNL1        0.0040
     10  C         11.6540   -9.5270   10.4830 C.2     1  UNL1        0.0000
     11  C         12.5000   -7.3420   10.2460 C.2     1  UNL1        0.0000
     12  C         12.7160   -8.6990   10.1770 C.2     1  UNL1        0.0000
@<TRIPOS>BOND
     1    12    11    2
     2    12    10    1
     3    11     9    1
     4     1     2    1
     5     1     6    1
     6     3     2    2
     7    10     8    2
     8     9     7    2
     9     8     7    1
    10     7     6    1
    11     2     4    1
    12     4     5    1
