@<TRIPOS>MOLECULE
/home/cewinharhar/GITHUB/reincatalyze/data/processed/docking_pred/2023-Apr-25-2248_maxeplen10_maxtrainstep1000_exh16_gamma099_lrac3e-4_lrcr1e-3/ab955c776f37f5544fae82246801d9a2769dfb79_ligand_2.pdbqt
 12 12 0 0 0
SMALL
GASTEIGER

@<TRIPOS>ATOM
      1  C          6.4390   -0.5490    2.7070 C.3     1  UNL1        0.1270
      2  C          7.1750   -1.5320    1.8930 C.2     1  UNL1        0.3030
      3  O          8.3370   -1.2490    1.4930 O.2     1  UNL1       -0.2520
      4  O          6.6280   -2.7770    1.5470 O.3     1  UNL1       -0.4810
      5  H          6.6670   -3.5270    2.2240 H       1  UNL1        0.2960
      6  C          5.2220   -0.0010    1.9830 C.3     1  UNL1        0.0470
      7  C          5.5260    1.3090    1.3480 C.2     1  UNL1       -0.0470
      8  C          6.5050    2.1390    1.8720 C.2     1  UNL1        0.0040
      9  C          4.8580    1.7700    0.2280 C.2     1  UNL1        0.0040
     10  C          6.8020    3.3610    1.3140 C.2     1  UNL1        0.0000
     11  C          5.1560    2.9940   -0.3300 C.2     1  UNL1        0.0000
     12  C          6.1290    3.8130    0.1970 C.2     1  UNL1        0.0000
@<TRIPOS>BOND
     1    11    12    2
     2    11     9    1
     3    12    10    1
     4     9     7    2
     5    10     8    2
     6     7     8    1
     7     7     6    1
     8     3     2    2
     9     4     2    1
    10     4     5    1
    11     2     1    1
    12     6     1    1
