@<TRIPOS>MOLECULE
/home/cewinharhar/GITHUB/reincatalyze/data/processed/docking_pred/2023-Apr-25-2248_maxeplen10_maxtrainstep1000_exh16_gamma099_lrac3e-4_lrcr1e-3/ada201db5b439d74c350b173ce56903753062bb1_ligand_2.pdbqt
 12 12 0 0 0
SMALL
GASTEIGER

@<TRIPOS>ATOM
      1  C          8.2760    0.4150   -2.0050 C.3     1  UNL1        0.1270
      2  C          9.4480    0.4240   -1.1120 C.2     1  UNL1        0.3030
      3  O          9.4910   -0.3900   -0.1500 O.2     1  UNL1       -0.2520
      4  O         10.5220    1.3080   -1.2960 O.3     1  UNL1       -0.4810
      5  H         10.4200    2.0610   -1.9620 H       1  UNL1        0.2960
      6  C          7.1700   -0.4880   -1.4910 C.3     1  UNL1        0.0470
      7  C          6.3640    0.1970   -0.4480 C.2     1  UNL1       -0.0470
      8  C          6.1510   -0.3980    0.7870 C.2     1  UNL1        0.0040
      9  C          5.7830    1.4370   -0.6450 C.2     1  UNL1        0.0040
     10  C          5.4000    0.2060    1.7690 C.2     1  UNL1        0.0000
     11  C          5.0320    2.0410    0.3400 C.2     1  UNL1        0.0000
     12  C          4.8240    1.4430    1.5620 C.2     1  UNL1        0.0000
@<TRIPOS>BOND
     1     1     6    1
     2     1     2    1
     3     5     4    1
     4     6     7    1
     5     4     2    1
     6     2     3    2
     7     9     7    2
     8     9    11    1
     9     7     8    1
    10    11    12    2
    11     8    10    2
    12    12    10    1
