MODEL 1
REMARK VINA RESULT:      -7.3      0.000      0.000
REMARK SMILES O=C(O)CCc1ccccc1
REMARK SMILES IDX 4 1 2 2 1 3 3 4 5 6 6 7 7 8 11 9 8 10 10 11 9 12
REMARK H PARENT 3 5
REMARK Flexibility Score: inf
ROOT
ATOM      1  C   UNL     1       8.459  -0.697  -2.085  1.00  0.00     0.127 C 
ENDROOT
BRANCH   1   2
ATOM      2  C   UNL     1       8.462  -1.934  -2.887  1.00  0.00     0.303 C 
ATOM      3  O   UNL     1       9.556  -2.523  -3.100  1.00  0.00    -0.252 OA
BRANCH   2   4
ATOM      4  O   UNL     1       7.286  -2.481  -3.421  1.00  0.00    -0.481 OA
ATOM      5  H   UNL     1       6.419  -1.976  -3.301  1.00  0.00     0.296 HD
ENDBRANCH   2   4
ENDBRANCH   1   2
BRANCH   1   6
ATOM      6  C   UNL     1       7.114   0.007  -2.121  1.00  0.00     0.047 C 
BRANCH   6   7
ATOM      7  C   UNL     1       6.520   0.090  -0.762  1.00  0.00    -0.047 A 
ATOM      8  C   UNL     1       5.834   1.226  -0.357  1.00  0.00     0.004 A 
ATOM      9  C   UNL     1       6.621  -0.934   0.163  1.00  0.00     0.004 A 
ATOM     10  C   UNL     1       5.281   1.337   0.898  1.00  0.00     0.000 A 
ATOM     11  C   UNL     1       6.067  -0.820   1.420  1.00  0.00     0.000 A 
ATOM     12  C   UNL     1       5.390   0.311   1.815  1.00  0.00     0.000 A 
ENDBRANCH   6   7
ENDBRANCH   1   6
TORSDOF 4
ENDMDL
MODEL 2
REMARK VINA RESULT:      -7.2      0.105      1.724
REMARK SMILES O=C(O)CCc1ccccc1
REMARK SMILES IDX 4 1 2 2 1 3 3 4 5 6 6 7 7 8 11 9 8 10 10 11 9 12
REMARK H PARENT 3 5
REMARK Flexibility Score: inf
ROOT
ATOM      1  C   UNL     1       8.380  -0.648  -2.132  1.00  0.00     0.127 C 
ENDROOT
BRANCH   1   2
ATOM      2  C   UNL     1       8.391  -1.910  -2.893  1.00  0.00     0.303 C 
ATOM      3  O   UNL     1       7.295  -2.423  -3.244  1.00  0.00    -0.252 OA
BRANCH   2   4
ATOM      4  O   UNL     1       9.583  -2.561  -3.242  1.00  0.00    -0.481 OA
ATOM      5  H   UNL     1       9.960  -3.253  -2.608  1.00  0.00     0.296 HD
ENDBRANCH   2   4
ENDBRANCH   1   2
BRANCH   1   6
ATOM      6  C   UNL     1       7.011   0.010  -2.132  1.00  0.00     0.047 C 
BRANCH   6   7
ATOM      7  C   UNL     1       6.469   0.111  -0.752  1.00  0.00    -0.047 A 
ATOM      8  C   UNL     1       6.609  -0.941   0.143  1.00  0.00     0.004 A 
ATOM      9  C   UNL     1       5.799   1.229  -0.291  1.00  0.00     0.004 A 
ATOM     10  C   UNL     1       6.109  -0.882   1.423  1.00  0.00     0.000 A 
ATOM     11  C   UNL     1       5.298   1.286   0.992  1.00  0.00     0.000 A 
ATOM     12  C   UNL     1       5.441   0.239   1.873  1.00  0.00     0.000 A 
ENDBRANCH   6   7
ENDBRANCH   1   6
TORSDOF 4
ENDMDL
MODEL 3
REMARK VINA RESULT:      -7.0      0.669      1.571
REMARK SMILES O=C(O)CCc1ccccc1
REMARK SMILES IDX 4 1 2 2 1 3 3 4 5 6 6 7 7 8 11 9 8 10 10 11 9 12
REMARK H PARENT 3 5
REMARK Flexibility Score: inf
ROOT
ATOM      1  C   UNL     1       8.303  -1.104  -1.646  1.00  0.00     0.127 C 
ENDROOT
BRANCH   1   2
ATOM      2  C   UNL     1       8.346  -2.042  -2.782  1.00  0.00     0.303 C 
ATOM      3  O   UNL     1       7.262  -2.421  -3.304  1.00  0.00    -0.252 OA
BRANCH   2   4
ATOM      4  O   UNL     1       9.552  -2.527  -3.306  1.00  0.00    -0.481 OA
ATOM      5  H   UNL     1       9.651  -2.594  -4.310  1.00  0.00     0.296 HD
ENDBRANCH   2   4
ENDBRANCH   1   2
BRANCH   1   6
ATOM      6  C   UNL     1       7.353  -1.566  -0.556  1.00  0.00     0.047 C 
BRANCH   6   7
ATOM      7  C   UNL     1       6.537  -0.433  -0.046  1.00  0.00    -0.047 A 
ATOM      8  C   UNL     1       6.258   0.659  -0.855  1.00  0.00     0.004 A 
ATOM      9  C   UNL     1       6.028  -0.397   1.240  1.00  0.00     0.004 A 
ATOM     10  C   UNL     1       5.515   1.728  -0.408  1.00  0.00     0.000 A 
ATOM     11  C   UNL     1       5.284   0.674   1.685  1.00  0.00     0.000 A 
ATOM     12  C   UNL     1       5.012   1.755   0.877  1.00  0.00     0.000 A 
ENDBRANCH   6   7
ENDBRANCH   1   6
TORSDOF 4
ENDMDL
MODEL 4
REMARK VINA RESULT:      -6.8      3.376      5.080
REMARK SMILES O=C(O)CCc1ccccc1
REMARK SMILES IDX 4 1 2 2 1 3 3 4 5 6 6 7 7 8 11 9 8 10 10 11 9 12
REMARK H PARENT 3 5
REMARK Flexibility Score: inf
ROOT
ATOM      1  C   UNL     1       5.020   1.756   0.718  1.00  0.00     0.127 C 
ENDROOT
BRANCH   1   2
ATOM      2  C   UNL     1       4.492   1.093   1.923  1.00  0.00     0.303 C 
ATOM      3  O   UNL     1       5.176   0.189   2.475  1.00  0.00    -0.252 OA
BRANCH   2   4
ATOM      4  O   UNL     1       3.251   1.434   2.481  1.00  0.00    -0.481 OA
ATOM      5  H   UNL     1       2.555   0.709   2.593  1.00  0.00     0.296 HD
ENDBRANCH   2   4
ENDBRANCH   1   2
BRANCH   1   6
ATOM      6  C   UNL     1       6.535   1.858   0.736  1.00  0.00     0.047 C 
BRANCH   6   7
ATOM      7  C   UNL     1       7.137   1.047  -0.354  1.00  0.00    -0.047 A 
ATOM      8  C   UNL     1       8.490   1.146  -0.645  1.00  0.00     0.004 A 
ATOM      9  C   UNL     1       6.399   0.173  -1.132  1.00  0.00     0.004 A 
ATOM     10  C   UNL     1       9.075   0.417  -1.655  1.00  0.00     0.000 A 
ATOM     11  C   UNL     1       6.987  -0.556  -2.143  1.00  0.00     0.000 A 
ATOM     12  C   UNL     1       8.330  -0.451  -2.426  1.00  0.00     0.000 A 
ENDBRANCH   6   7
ENDBRANCH   1   6
TORSDOF 4
ENDMDL
MODEL 5
REMARK VINA RESULT:      -6.6      1.983      2.688
REMARK SMILES O=C(O)CCc1ccccc1
REMARK SMILES IDX 4 1 2 2 1 3 3 4 5 6 6 7 7 8 11 9 8 10 10 11 9 12
REMARK H PARENT 3 5
REMARK Flexibility Score: inf
ROOT
ATOM      1  C   UNL     1       8.276   0.415  -2.005  1.00  0.00     0.127 C 
ENDROOT
BRANCH   1   2
ATOM      2  C   UNL     1       9.448   0.424  -1.112  1.00  0.00     0.303 C 
ATOM      3  O   UNL     1       9.491  -0.390  -0.150  1.00  0.00    -0.252 OA
BRANCH   2   4
ATOM      4  O   UNL     1      10.522   1.308  -1.296  1.00  0.00    -0.481 OA
ATOM      5  H   UNL     1      10.420   2.061  -1.962  1.00  0.00     0.296 HD
ENDBRANCH   2   4
ENDBRANCH   1   2
BRANCH   1   6
ATOM      6  C   UNL     1       7.170  -0.488  -1.491  1.00  0.00     0.047 C 
BRANCH   6   7
ATOM      7  C   UNL     1       6.364   0.197  -0.448  1.00  0.00    -0.047 A 
ATOM      8  C   UNL     1       6.151  -0.398   0.787  1.00  0.00     0.004 A 
ATOM      9  C   UNL     1       5.783   1.437  -0.645  1.00  0.00     0.004 A 
ATOM     10  C   UNL     1       5.400   0.206   1.769  1.00  0.00     0.000 A 
ATOM     11  C   UNL     1       5.032   2.041   0.340  1.00  0.00     0.000 A 
ATOM     12  C   UNL     1       4.824   1.443   1.562  1.00  0.00     0.000 A 
ENDBRANCH   6   7
ENDBRANCH   1   6
TORSDOF 4
ENDMDL
