@<TRIPOS>MOLECULE
/home/cewinharhar/GITHUB/reincatalyze/data/processed/docking_pred/2023-Apr-25-2248_maxeplen10_maxtrainstep1000_exh16_gamma099_lrac3e-4_lrcr1e-3/ada201db5b439d74c350b173ce56903753062bb1_ligand_2.pdbqt
 12 12 0 0 0
SMALL
GASTEIGER

@<TRIPOS>ATOM
      1  C          8.3030   -1.1040   -1.6460 C.3     1  UNL1        0.1270
      2  C          8.3460   -2.0420   -2.7820 C.2     1  UNL1        0.3030
      3  O          7.2620   -2.4210   -3.3040 O.2     1  UNL1       -0.2520
      4  O          9.5520   -2.5270   -3.3060 O.3     1  UNL1       -0.4810
      5  H          9.6510   -2.5940   -4.3100 H       1  UNL1        0.2960
      6  C          7.3530   -1.5660   -0.5560 C.3     1  UNL1        0.0470
      7  C          6.5370   -0.4330   -0.0460 C.2     1  UNL1       -0.0470
      8  C          6.2580    0.6590   -0.8550 C.2     1  UNL1        0.0040
      9  C          6.0280   -0.3970    1.2400 C.2     1  UNL1        0.0040
     10  C          5.5150    1.7280   -0.4080 C.2     1  UNL1        0.0000
     11  C          5.2840    0.6740    1.6850 C.2     1  UNL1        0.0000
     12  C          5.0120    1.7550    0.8770 C.2     1  UNL1        0.0000
@<TRIPOS>BOND
     1     5     4    1
     2     4     2    1
     3     3     2    2
     4     2     1    1
     5     1     6    1
     6     8    10    1
     7     8     7    2
     8     6     7    1
     9    10    12    2
    10     7     9    1
    11    12    11    1
    12     9    11    2
