@<TRIPOS>MOLECULE
/home/cewinharhar/GITHUB/reincatalyze/data/processed/docking_pred/2023-Apr-25-2248_maxeplen10_maxtrainstep1000_exh16_gamma099_lrac3e-4_lrcr1e-3/ada201db5b439d74c350b173ce56903753062bb1_ligand_2.pdbqt
 12 12 0 0 0
SMALL
GASTEIGER

@<TRIPOS>ATOM
      1  C          8.4590   -0.6970   -2.0850 C.3     1  UNL1        0.1270
      2  C          8.4620   -1.9340   -2.8870 C.2     1  UNL1        0.3030
      3  O          9.5560   -2.5230   -3.1000 O.2     1  UNL1       -0.2520
      4  O          7.2860   -2.4810   -3.4210 O.3     1  UNL1       -0.4810
      5  H          6.4190   -1.9760   -3.3010 H       1  UNL1        0.2960
      6  C          7.1140    0.0070   -2.1210 C.3     1  UNL1        0.0470
      7  C          6.5200    0.0900   -0.7620 C.2     1  UNL1       -0.0470
      8  C          5.8340    1.2260   -0.3570 C.2     1  UNL1        0.0040
      9  C          6.6210   -0.9340    0.1630 C.2     1  UNL1        0.0040
     10  C          5.2810    1.3370    0.8980 C.2     1  UNL1        0.0000
     11  C          6.0670   -0.8200    1.4200 C.2     1  UNL1        0.0000
     12  C          5.3900    0.3110    1.8150 C.2     1  UNL1        0.0000
@<TRIPOS>BOND
     1     4     5    1
     2     4     2    1
     3     3     2    2
     4     2     1    1
     5     6     1    1
     6     6     7    1
     7     7     8    2
     8     7     9    1
     9     8    10    1
    10     9    11    2
    11    10    12    2
    12    11    12    1
