@<TRIPOS>MOLECULE
/home/cewinharhar/GITHUB/reincatalyze/data/processed/docking_pred/2023-Apr-25-2248_maxeplen10_maxtrainstep1000_exh16_gamma099_lrac3e-4_lrcr1e-3/ada201db5b439d74c350b173ce56903753062bb1_ligand_2.pdbqt
 12 12 0 0 0
SMALL
GASTEIGER

@<TRIPOS>ATOM
      1  C          5.0200    1.7560    0.7180 C.3     1  UNL1        0.1270
      2  C          4.4920    1.0930    1.9230 C.2     1  UNL1        0.3030
      3  O          5.1760    0.1890    2.4750 O.2     1  UNL1       -0.2520
      4  O          3.2510    1.4340    2.4810 O.3     1  UNL1       -0.4810
      5  H          2.5550    0.7090    2.5930 H       1  UNL1        0.2960
      6  C          6.5350    1.8580    0.7360 C.3     1  UNL1        0.0470
      7  C          7.1370    1.0470   -0.3540 C.2     1  UNL1       -0.0470
      8  C          8.4900    1.1460   -0.6450 C.2     1  UNL1        0.0040
      9  C          6.3990    0.1730   -1.1320 C.2     1  UNL1        0.0040
     10  C          9.0750    0.4170   -1.6550 C.2     1  UNL1        0.0000
     11  C          6.9870   -0.5560   -2.1430 C.2     1  UNL1        0.0000
     12  C          8.3300   -0.4510   -2.4260 C.2     1  UNL1        0.0000
@<TRIPOS>BOND
     1    12    11    2
     2    12    10    1
     3    11     9    1
     4    10     8    2
     5     9     7    2
     6     8     7    1
     7     7     6    1
     8     1     6    1
     9     1     2    1
    10     2     3    2
    11     2     4    1
    12     4     5    1
