@<TRIPOS>MOLECULE
/home/cewinharhar/GITHUB/reincatalyze/data/processed/docking_pred/2023-Apr-25-2248_maxeplen10_maxtrainstep1000_exh16_gamma099_lrac3e-4_lrcr1e-3/ada201db5b439d74c350b173ce56903753062bb1_ligand_2.pdbqt
 12 12 0 0 0
SMALL
GASTEIGER

@<TRIPOS>ATOM
      1  C          8.3800   -0.6480   -2.1320 C.3     1  UNL1        0.1270
      2  C          8.3910   -1.9100   -2.8930 C.2     1  UNL1        0.3030
      3  O          7.2950   -2.4230   -3.2440 O.2     1  UNL1       -0.2520
      4  O          9.5830   -2.5610   -3.2420 O.3     1  UNL1       -0.4810
      5  H          9.9600   -3.2530   -2.6080 H       1  UNL1        0.2960
      6  C          7.0110    0.0100   -2.1320 C.3     1  UNL1        0.0470
      7  C          6.4690    0.1110   -0.7520 C.2     1  UNL1       -0.0470
      8  C          6.6090   -0.9410    0.1430 C.2     1  UNL1        0.0040
      9  C          5.7990    1.2290   -0.2910 C.2     1  UNL1        0.0040
     10  C          6.1090   -0.8820    1.4230 C.2     1  UNL1        0.0000
     11  C          5.2980    1.2860    0.9920 C.2     1  UNL1        0.0000
     12  C          5.4410    0.2390    1.8730 C.2     1  UNL1        0.0000
@<TRIPOS>BOND
     1     3     2    2
     2     4     2    1
     3     4     5    1
     4     2     1    1
     5     1     6    1
     6     6     7    1
     7     7     9    2
     8     7     8    1
     9     9    11    1
    10     8    10    2
    11    11    12    2
    12    10    12    1
