@<TRIPOS>MOLECULE
/home/cewinharhar/GITHUB/reincatalyze/data/processed/docking_pred/2023-Apr-25-2248_maxeplen10_maxtrainstep1000_exh16_gamma099_lrac3e-4_lrcr1e-3/ae2b7ca0e57384ee3cd7889808440c06f68d274f_ligand_2.pdbqt
 12 12 0 0 0
SMALL
GASTEIGER

@<TRIPOS>ATOM
      1  C          8.3080   -0.9610   -1.8290 C.3     1  UNL1        0.1270
      2  C          8.3930   -2.0210   -2.8490 C.2     1  UNL1        0.3030
      3  O          9.5110   -2.5540   -3.0860 O.2     1  UNL1       -0.2520
      4  O          7.2710   -2.4610   -3.5660 O.3     1  UNL1       -0.4810
      5  H          6.7620   -1.7900   -4.1260 H       1  UNL1        0.2960
      6  C          7.5810   -1.4240   -0.5790 C.3     1  UNL1        0.0470
      7  C          6.6840   -0.3600   -0.0590 C.2     1  UNL1       -0.0470
      8  C          6.1700   -0.4330    1.2280 C.2     1  UNL1        0.0040
      9  C          6.3090    0.7370   -0.8130 C.2     1  UNL1        0.0040
     10  C          5.3290    0.5300    1.7350 C.2     1  UNL1        0.0000
     11  C          5.4660    1.7020   -0.3030 C.2     1  UNL1        0.0000
     12  C          4.9590    1.6210    0.9740 C.2     1  UNL1        0.0000
@<TRIPOS>BOND
     1     5     4    1
     2     4     2    1
     3     3     2    2
     4     2     1    1
     5     1     6    1
     6     9    11    1
     7     9     7    2
     8     6     7    1
     9    11    12    2
    10     7     8    1
    11    12    10    1
    12     8    10    2
