@<TRIPOS>MOLECULE
/home/cewinharhar/GITHUB/reincatalyze/data/processed/docking_pred/2023-Apr-25-2248_maxeplen10_maxtrainstep1000_exh16_gamma099_lrac3e-4_lrcr1e-3/ae2b7ca0e57384ee3cd7889808440c06f68d274f_ligand_2.pdbqt
 12 12 0 0 0
SMALL
GASTEIGER

@<TRIPOS>ATOM
      1  C          5.0090    1.7780    0.7320 C.3     1  UNL1        0.1270
      2  C          4.4720    1.1080    1.9300 C.2     1  UNL1        0.3030
      3  O          5.1500    0.1980    2.4790 O.2     1  UNL1       -0.2520
      4  O          3.2290    1.4490    2.4840 O.3     1  UNL1       -0.4810
      5  H          2.7190    0.7440    2.9980 H       1  UNL1        0.2960
      6  C          6.5230    1.8750    0.7600 C.3     1  UNL1        0.0470
      7  C          7.1290    1.0630   -0.3280 C.2     1  UNL1       -0.0470
      8  C          8.4670    1.2130   -0.6620 C.2     1  UNL1        0.0040
      9  C          6.4080    0.1390   -1.0620 C.2     1  UNL1        0.0040
     10  C          9.0540    0.4840   -1.6710 C.2     1  UNL1        0.0000
     11  C          6.9970   -0.5900   -2.0730 C.2     1  UNL1        0.0000
     12  C          8.3250   -0.4350   -2.3990 C.2     1  UNL1        0.0000
@<TRIPOS>BOND
     1    12    11    2
     2    12    10    1
     3    11     9    1
     4    10     8    2
     5     9     7    2
     6     8     7    1
     7     7     6    1
     8     1     6    1
     9     1     2    1
    10     2     3    2
    11     2     4    1
    12     4     5    1
