@<TRIPOS>MOLECULE
/home/cewinharhar/GITHUB/reincatalyze/data/processed/docking_pred/2023-Apr-25-2248_maxeplen10_maxtrainstep1000_exh16_gamma099_lrac3e-4_lrcr1e-3/ae2b7ca0e57384ee3cd7889808440c06f68d274f_ligand_2.pdbqt
 12 12 0 0 0
SMALL
GASTEIGER

@<TRIPOS>ATOM
      1  C          8.3900   -0.6250   -2.1750 C.3     1  UNL1        0.1270
      2  C          8.4290   -1.9010   -2.9110 C.2     1  UNL1        0.3030
      3  O          9.5370   -2.4790   -3.0760 O.2     1  UNL1       -0.2520
      4  O          7.2730   -2.4970   -3.4360 O.3     1  UNL1       -0.4810
      5  H          6.4460   -1.9280   -3.5540 H       1  UNL1        0.2960
      6  C          6.9960   -0.0250   -2.1410 C.3     1  UNL1        0.0470
      7  C          6.4790    0.0430   -0.7490 C.2     1  UNL1       -0.0470
      8  C          6.6260   -1.0330    0.1140 C.2     1  UNL1        0.0040
      9  C          5.8260    1.1540   -0.2460 C.2     1  UNL1        0.0040
     10  C          6.1490   -1.0050    1.4050 C.2     1  UNL1        0.0000
     11  C          5.3490    1.1810    1.0470 C.2     1  UNL1        0.0000
     12  C          5.4980    0.1080    1.8960 C.2     1  UNL1        0.0000
@<TRIPOS>BOND
     1     5     4    1
     2     4     2    1
     3     3     2    2
     4     2     1    1
     5     1     6    1
     6     6     7    1
     7     7     9    2
     8     7     8    1
     9     9    11    1
    10     8    10    2
    11    11    12    2
    12    10    12    1
