@<TRIPOS>MOLECULE
/home/cewinharhar/GITHUB/reincatalyze/data/processed/docking_pred/2023-Apr-25-2248_maxeplen10_maxtrainstep1000_exh16_gamma099_lrac3e-4_lrcr1e-3/ae2b7ca0e57384ee3cd7889808440c06f68d274f_ligand_2.pdbqt
 12 12 0 0 0
SMALL
GASTEIGER

@<TRIPOS>ATOM
      1  C          8.3830   -0.5840   -2.2320 C.3     1  UNL1        0.1270
      2  C          8.4180   -1.8860   -2.9220 C.2     1  UNL1        0.3030
      3  O          9.5230   -2.4770   -3.0580 O.2     1  UNL1       -0.2520
      4  O          7.2620   -2.4920   -3.4340 O.3     1  UNL1       -0.4810
      5  H          6.4180   -1.9400   -3.5060 H       1  UNL1        0.2960
      6  C          6.9830    0.0000   -2.1810 C.3     1  UNL1        0.0470
      7  C          6.4770    0.0500   -0.7840 C.2     1  UNL1       -0.0470
      8  C          5.8410    1.1850   -0.3010 C.2     1  UNL1        0.0040
      9  C          6.6160   -1.0040    0.1000 C.2     1  UNL1        0.0040
     10  C          5.3710    1.2650    0.9900 C.2     1  UNL1        0.0000
     11  C          6.1450   -0.9220    1.3930 C.2     1  UNL1        0.0000
     12  C          5.5160    0.2080    1.8650 C.2     1  UNL1        0.0000
@<TRIPOS>BOND
     1     5     4    1
     2     4     2    1
     3     3     2    2
     4     2     1    1
     5     1     6    1
     6     6     7    1
     7     7     8    2
     8     7     9    1
     9     8    10    1
    10     9    11    2
    11    10    12    2
    12    11    12    1
