MODEL 1
REMARK VINA RESULT:      -7.3      0.000      0.000
REMARK SMILES O=C(O)CCc1ccccc1
REMARK SMILES IDX 4 1 2 2 1 3 3 4 5 6 6 7 7 8 11 9 8 10 10 11 9 12
REMARK H PARENT 3 5
REMARK Flexibility Score: inf
ROOT
ATOM      1  C   UNL     1       8.390  -0.625  -2.175  1.00  0.00     0.127 C 
ENDROOT
BRANCH   1   2
ATOM      2  C   UNL     1       8.429  -1.901  -2.911  1.00  0.00     0.303 C 
ATOM      3  O   UNL     1       9.537  -2.479  -3.076  1.00  0.00    -0.252 OA
BRANCH   2   4
ATOM      4  O   UNL     1       7.273  -2.497  -3.436  1.00  0.00    -0.481 OA
ATOM      5  H   UNL     1       6.446  -1.928  -3.554  1.00  0.00     0.296 HD
ENDBRANCH   2   4
ENDBRANCH   1   2
BRANCH   1   6
ATOM      6  C   UNL     1       6.996  -0.025  -2.141  1.00  0.00     0.047 C 
BRANCH   6   7
ATOM      7  C   UNL     1       6.479   0.043  -0.749  1.00  0.00    -0.047 A 
ATOM      8  C   UNL     1       6.626  -1.033   0.114  1.00  0.00     0.004 A 
ATOM      9  C   UNL     1       5.826   1.154  -0.246  1.00  0.00     0.004 A 
ATOM     10  C   UNL     1       6.149  -1.005   1.405  1.00  0.00     0.000 A 
ATOM     11  C   UNL     1       5.349   1.181   1.047  1.00  0.00     0.000 A 
ATOM     12  C   UNL     1       5.498   0.108   1.896  1.00  0.00     0.000 A 
ENDBRANCH   6   7
ENDBRANCH   1   6
TORSDOF 4
ENDMDL
MODEL 2
REMARK VINA RESULT:      -7.3      0.063      1.422
REMARK SMILES O=C(O)CCc1ccccc1
REMARK SMILES IDX 4 1 2 2 1 3 3 4 5 6 6 7 7 8 11 9 8 10 10 11 9 12
REMARK H PARENT 3 5
REMARK Flexibility Score: inf
ROOT
ATOM      1  C   UNL     1       8.383  -0.584  -2.232  1.00  0.00     0.127 C 
ENDROOT
BRANCH   1   2
ATOM      2  C   UNL     1       8.418  -1.886  -2.922  1.00  0.00     0.303 C 
ATOM      3  O   UNL     1       9.523  -2.477  -3.058  1.00  0.00    -0.252 OA
BRANCH   2   4
ATOM      4  O   UNL     1       7.262  -2.492  -3.434  1.00  0.00    -0.481 OA
ATOM      5  H   UNL     1       6.418  -1.940  -3.506  1.00  0.00     0.296 HD
ENDBRANCH   2   4
ENDBRANCH   1   2
BRANCH   1   6
ATOM      6  C   UNL     1       6.983   0.000  -2.181  1.00  0.00     0.047 C 
BRANCH   6   7
ATOM      7  C   UNL     1       6.477   0.050  -0.784  1.00  0.00    -0.047 A 
ATOM      8  C   UNL     1       5.841   1.185  -0.301  1.00  0.00     0.004 A 
ATOM      9  C   UNL     1       6.616  -1.004   0.100  1.00  0.00     0.004 A 
ATOM     10  C   UNL     1       5.371   1.265   0.990  1.00  0.00     0.000 A 
ATOM     11  C   UNL     1       6.145  -0.922   1.393  1.00  0.00     0.000 A 
ATOM     12  C   UNL     1       5.516   0.208   1.865  1.00  0.00     0.000 A 
ENDBRANCH   6   7
ENDBRANCH   1   6
TORSDOF 4
ENDMDL
MODEL 3
REMARK VINA RESULT:      -7.2      0.698      1.240
REMARK SMILES O=C(O)CCc1ccccc1
REMARK SMILES IDX 4 1 2 2 1 3 3 4 5 6 6 7 7 8 11 9 8 10 10 11 9 12
REMARK H PARENT 3 5
REMARK Flexibility Score: inf
ROOT
ATOM      1  C   UNL     1       8.308  -0.961  -1.829  1.00  0.00     0.127 C 
ENDROOT
BRANCH   1   2
ATOM      2  C   UNL     1       8.393  -2.021  -2.849  1.00  0.00     0.303 C 
ATOM      3  O   UNL     1       9.511  -2.554  -3.086  1.00  0.00    -0.252 OA
BRANCH   2   4
ATOM      4  O   UNL     1       7.271  -2.461  -3.566  1.00  0.00    -0.481 OA
ATOM      5  H   UNL     1       6.762  -1.790  -4.126  1.00  0.00     0.296 HD
ENDBRANCH   2   4
ENDBRANCH   1   2
BRANCH   1   6
ATOM      6  C   UNL     1       7.581  -1.424  -0.579  1.00  0.00     0.047 C 
BRANCH   6   7
ATOM      7  C   UNL     1       6.684  -0.360  -0.059  1.00  0.00    -0.047 A 
ATOM      8  C   UNL     1       6.170  -0.433   1.228  1.00  0.00     0.004 A 
ATOM      9  C   UNL     1       6.309   0.737  -0.813  1.00  0.00     0.004 A 
ATOM     10  C   UNL     1       5.329   0.530   1.735  1.00  0.00     0.000 A 
ATOM     11  C   UNL     1       5.466   1.702  -0.303  1.00  0.00     0.000 A 
ATOM     12  C   UNL     1       4.959   1.621   0.974  1.00  0.00     0.000 A 
ENDBRANCH   6   7
ENDBRANCH   1   6
TORSDOF 4
ENDMDL
MODEL 4
REMARK VINA RESULT:      -6.8      3.401      5.094
REMARK SMILES O=C(O)CCc1ccccc1
REMARK SMILES IDX 4 1 2 2 1 3 3 4 5 6 6 7 7 8 11 9 8 10 10 11 9 12
REMARK H PARENT 3 5
REMARK Flexibility Score: inf
ROOT
ATOM      1  C   UNL     1       5.009   1.778   0.732  1.00  0.00     0.127 C 
ENDROOT
BRANCH   1   2
ATOM      2  C   UNL     1       4.472   1.108   1.930  1.00  0.00     0.303 C 
ATOM      3  O   UNL     1       5.150   0.198   2.479  1.00  0.00    -0.252 OA
BRANCH   2   4
ATOM      4  O   UNL     1       3.229   1.449   2.484  1.00  0.00    -0.481 OA
ATOM      5  H   UNL     1       2.719   0.744   2.998  1.00  0.00     0.296 HD
ENDBRANCH   2   4
ENDBRANCH   1   2
BRANCH   1   6
ATOM      6  C   UNL     1       6.523   1.875   0.760  1.00  0.00     0.047 C 
BRANCH   6   7
ATOM      7  C   UNL     1       7.129   1.063  -0.328  1.00  0.00    -0.047 A 
ATOM      8  C   UNL     1       8.467   1.213  -0.662  1.00  0.00     0.004 A 
ATOM      9  C   UNL     1       6.408   0.139  -1.062  1.00  0.00     0.004 A 
ATOM     10  C   UNL     1       9.054   0.484  -1.671  1.00  0.00     0.000 A 
ATOM     11  C   UNL     1       6.997  -0.590  -2.073  1.00  0.00     0.000 A 
ATOM     12  C   UNL     1       8.325  -0.435  -2.399  1.00  0.00     0.000 A 
ENDBRANCH   6   7
ENDBRANCH   1   6
TORSDOF 4
ENDMDL
MODEL 5
REMARK VINA RESULT:      -6.6      1.871      2.841
REMARK SMILES O=C(O)CCc1ccccc1
REMARK SMILES IDX 4 1 2 2 1 3 3 4 5 6 6 7 7 8 11 9 8 10 10 11 9 12
REMARK H PARENT 3 5
REMARK Flexibility Score: inf
ROOT
ATOM      1  C   UNL     1       8.242  -1.635   0.995  1.00  0.00     0.127 C 
ENDROOT
BRANCH   1   2
ATOM      2  C   UNL     1       8.538  -2.866   0.241  1.00  0.00     0.303 C 
ATOM      3  O   UNL     1       9.175  -3.795   0.809  1.00  0.00    -0.252 OA
BRANCH   2   4
ATOM      4  O   UNL     1       8.132  -3.043  -1.090  1.00  0.00    -0.481 OA
ATOM      5  H   UNL     1       7.442  -2.411  -1.473  1.00  0.00     0.296 HD
ENDBRANCH   2   4
ENDBRANCH   1   2
BRANCH   1   6
ATOM      6  C   UNL     1       6.771  -1.521   1.354  1.00  0.00     0.047 C 
BRANCH   6   7
ATOM      7  C   UNL     1       6.193  -0.254   0.834  1.00  0.00    -0.047 A 
ATOM      8  C   UNL     1       6.450   0.160  -0.465  1.00  0.00     0.004 A 
ATOM      9  C   UNL     1       5.392   0.572   1.600  1.00  0.00     0.004 A 
ATOM     10  C   UNL     1       5.939   1.333  -0.972  1.00  0.00     0.000 A 
ATOM     11  C   UNL     1       4.880   1.746   1.091  1.00  0.00     0.000 A 
ATOM     12  C   UNL     1       5.141   2.152  -0.199  1.00  0.00     0.000 A 
ENDBRANCH   6   7
ENDBRANCH   1   6
TORSDOF 4
ENDMDL
