@<TRIPOS>MOLECULE
/home/cewinharhar/GITHUB/reincatalyze/data/processed/docking_pred/2023-Apr-25-2248_maxeplen10_maxtrainstep1000_exh16_gamma099_lrac3e-4_lrcr1e-3/ae2b7ca0e57384ee3cd7889808440c06f68d274f_ligand_2.pdbqt
 12 12 0 0 0
SMALL
GASTEIGER

@<TRIPOS>ATOM
      1  C          8.2420   -1.6350    0.9950 C.3     1  UNL1        0.1270
      2  C          8.5380   -2.8660    0.2410 C.2     1  UNL1        0.3030
      3  O          9.1750   -3.7950    0.8090 O.2     1  UNL1       -0.2520
      4  O          8.1320   -3.0430   -1.0900 O.3     1  UNL1       -0.4810
      5  H          7.4420   -2.4110   -1.4730 H       1  UNL1        0.2960
      6  C          6.7710   -1.5210    1.3540 C.3     1  UNL1        0.0470
      7  C          6.1930   -0.2540    0.8340 C.2     1  UNL1       -0.0470
      8  C          6.4500    0.1600   -0.4650 C.2     1  UNL1        0.0040
      9  C          5.3920    0.5720    1.6000 C.2     1  UNL1        0.0040
     10  C          5.9390    1.3330   -0.9720 C.2     1  UNL1        0.0000
     11  C          4.8800    1.7460    1.0910 C.2     1  UNL1        0.0000
     12  C          5.1410    2.1520   -0.1990 C.2     1  UNL1        0.0000
@<TRIPOS>BOND
     1     5     4    1
     2     4     2    1
     3    10     8    1
     4    10    12    2
     5     8     7    2
     6    12    11    1
     7     2     3    2
     8     2     1    1
     9     7     6    1
    10     7     9    1
    11     1     6    1
    12    11     9    2
