@<TRIPOS>MOLECULE
/home/cewinharhar/GITHUB/reincatalyze/data/processed/docking_pred/2023-Apr-25-2248_maxeplen10_maxtrainstep1000_exh16_gamma099_lrac3e-4_lrcr1e-3/ae45d061dddc84380b8ad6f9293329cc64ca5b9d_ligand_2.pdbqt
 12 12 0 0 0
SMALL
GASTEIGER

@<TRIPOS>ATOM
      1  C          5.0320    1.7650    0.7310 C.3     1  UNL1        0.1270
      2  C          4.4990    1.1020    1.9340 C.2     1  UNL1        0.3030
      3  O          5.1880    0.2090    2.4980 O.2     1  UNL1       -0.2520
      4  O          3.2490    1.4320    2.4780 O.3     1  UNL1       -0.4810
      5  H          2.4630    1.5420    1.8510 H       1  UNL1        0.2960
      6  C          6.5480    1.8550    0.7490 C.3     1  UNL1        0.0470
      7  C          7.1430    1.0250   -0.3310 C.2     1  UNL1       -0.0470
      8  C          8.4790    1.1680   -0.6780 C.2     1  UNL1        0.0040
      9  C          6.4150    0.0910   -1.0450 C.2     1  UNL1        0.0040
     10  C          9.0570    0.4230   -1.6810 C.2     1  UNL1        0.0000
     11  C          6.9950   -0.6550   -2.0480 C.2     1  UNL1        0.0000
     12  C          8.3210   -0.5060   -2.3880 C.2     1  UNL1        0.0000
@<TRIPOS>BOND
     1    12    11    2
     2    12    10    1
     3    11     9    1
     4    10     8    2
     5     9     7    2
     6     8     7    1
     7     7     6    1
     8     1     6    1
     9     1     2    1
    10     5     4    1
    11     2     4    1
    12     2     3    2
