@<TRIPOS>MOLECULE
/home/cewinharhar/GITHUB/reincatalyze/data/processed/docking_pred/2023-Apr-25-2248_maxeplen10_maxtrainstep1000_exh16_gamma099_lrac3e-4_lrcr1e-3/ae45d061dddc84380b8ad6f9293329cc64ca5b9d_ligand_2.pdbqt
 12 12 0 0 0
SMALL
GASTEIGER

@<TRIPOS>ATOM
      1  C          8.3930   -0.6360   -2.1430 C.3     1  UNL1        0.1270
      2  C          8.4050   -1.9020   -2.8970 C.2     1  UNL1        0.3030
      3  O          7.3080   -2.4230   -3.2360 O.2     1  UNL1       -0.2520
      4  O          9.5970   -2.5490   -3.2540 O.3     1  UNL1       -0.4810
      5  H          9.6840   -3.5380   -3.0670 H       1  UNL1        0.2960
      6  C          7.0250    0.0220   -2.1490 C.3     1  UNL1        0.0470
      7  C          6.4750    0.1210   -0.7710 C.2     1  UNL1       -0.0470
      8  C          6.6190   -0.9290    0.1250 C.2     1  UNL1        0.0040
      9  C          5.7950    1.2350   -0.3140 C.2     1  UNL1        0.0040
     10  C          6.1130   -0.8730    1.4030 C.2     1  UNL1        0.0000
     11  C          5.2890    1.2890    0.9660 C.2     1  UNL1        0.0000
     12  C          5.4340    0.2430    1.8490 C.2     1  UNL1        0.0000
@<TRIPOS>BOND
     1     4     5    1
     2     4     2    1
     3     3     2    2
     4     2     1    1
     5     6     1    1
     6     6     7    1
     7     7     9    2
     8     7     8    1
     9     9    11    1
    10     8    10    2
    11    11    12    2
    12    10    12    1
