@<TRIPOS>MOLECULE
/home/cewinharhar/GITHUB/reincatalyze/data/processed/docking_pred/2023-Apr-25-2248_maxeplen10_maxtrainstep1000_exh16_gamma099_lrac3e-4_lrcr1e-3/ae45d061dddc84380b8ad6f9293329cc64ca5b9d_ligand_2.pdbqt
 12 12 0 0 0
SMALL
GASTEIGER

@<TRIPOS>ATOM
      1  C          5.4980    2.9140    0.0600 C.3     1  UNL1        0.1270
      2  C          6.2630    3.9060    0.8360 C.2     1  UNL1        0.3030
      3  O          6.9390    4.7750    0.2210 O.2     1  UNL1       -0.2520
      4  O          6.2650    3.9190    2.2380 O.3     1  UNL1       -0.4810
      5  H          7.0240    3.4610    2.7250 H       1  UNL1        0.2960
      6  C          4.8660    1.8560    0.9470 C.3     1  UNL1        0.0470
      7  C          5.6900    0.6190    0.9700 C.2     1  UNL1       -0.0470
      8  C          5.7010   -0.2030    2.0880 C.2     1  UNL1        0.0040
      9  C          6.4840    0.2290   -0.0920 C.2     1  UNL1        0.0040
     10  C          6.4610   -1.3490    2.1450 C.2     1  UNL1        0.0000
     11  C          7.2450   -0.9190   -0.0340 C.2     1  UNL1        0.0000
     12  C          7.2510   -1.7290    1.0790 C.2     1  UNL1        0.0000
@<TRIPOS>BOND
     1     9    11    1
     2     9     7    2
     3    11    12    2
     4     1     2    1
     5     1     6    1
     6     3     2    2
     7     2     4    1
     8     6     7    1
     9     7     8    1
    10    12    10    1
    11     8    10    2
    12     4     5    1
