@<TRIPOS>MOLECULE
/home/cewinharhar/GITHUB/reincatalyze/data/processed/docking_pred/2023-Apr-25-2248_maxeplen10_maxtrainstep1000_exh16_gamma099_lrac3e-4_lrcr1e-3/ae45d061dddc84380b8ad6f9293329cc64ca5b9d_ligand_2.pdbqt
 12 12 0 0 0
SMALL
GASTEIGER

@<TRIPOS>ATOM
      1  C          8.4760    0.6690   -1.6720 C.3     1  UNL1        0.1270
      2  C          9.6360    0.2840   -0.8490 C.2     1  UNL1        0.3030
      3  O          9.4690   -0.5230    0.1060 O.2     1  UNL1       -0.2520
      4  O         10.9240    0.7830   -1.0910 O.3     1  UNL1       -0.4810
      5  H         11.6620    0.1290   -1.3140 H       1  UNL1        0.2960
      6  C          7.2870   -0.2480   -1.4520 C.3     1  UNL1        0.0470
      7  C          6.4100    0.2670   -0.3680 C.2     1  UNL1       -0.0470
      8  C          5.7660    1.4880   -0.4990 C.2     1  UNL1        0.0040
      9  C          6.1980   -0.4210    0.8130 C.2     1  UNL1        0.0040
     10  C          4.9560    1.9970    0.4910 C.2     1  UNL1        0.0000
     11  C          5.3870    0.0900    1.8030 C.2     1  UNL1        0.0000
     12  C          4.7520    1.3030    1.6660 C.2     1  UNL1        0.0000
@<TRIPOS>BOND
     1     1     6    1
     2     1     2    1
     3     6     7    1
     4     5     4    1
     5     4     2    1
     6     2     3    2
     7     8     7    2
     8     8    10    1
     9     7     9    1
    10    10    12    2
    11     9    11    2
    12    12    11    1
