@<TRIPOS>MOLECULE
/home/cewinharhar/GITHUB/reincatalyze/data/processed/docking_pred/2023-Apr-25-2248_maxeplen10_maxtrainstep1000_exh16_gamma099_lrac3e-4_lrcr1e-3/ae45d061dddc84380b8ad6f9293329cc64ca5b9d_ligand_2.pdbqt
 12 12 0 0 0
SMALL
GASTEIGER

@<TRIPOS>ATOM
      1  C          8.4140   -0.6970   -2.0770 C.3     1  UNL1        0.1270
      2  C          8.4010   -1.9340   -2.8790 C.2     1  UNL1        0.3030
      3  O          7.2940   -2.4150   -3.2430 O.2     1  UNL1       -0.2520
      4  O          9.5790   -2.5950   -3.2530 O.3     1  UNL1       -0.4810
      5  H          9.9410   -3.3180   -2.6450 H       1  UNL1        0.2960
      6  C          7.0750    0.0180   -2.1030 C.3     1  UNL1        0.0470
      7  C          6.4900    0.1010   -0.7390 C.2     1  UNL1       -0.0470
      8  C          5.8050    1.2370   -0.3310 C.2     1  UNL1        0.0040
      9  C          6.5990   -0.9210    0.1860 C.2     1  UNL1        0.0040
     10  C          5.2610    1.3490    0.9280 C.2     1  UNL1        0.0000
     11  C          6.0530   -0.8080    1.4460 C.2     1  UNL1        0.0000
     12  C          5.3770    0.3230    1.8440 C.2     1  UNL1        0.0000
@<TRIPOS>BOND
     1     4     2    1
     2     4     5    1
     3     3     2    2
     4     2     1    1
     5     6     1    1
     6     6     7    1
     7     7     8    2
     8     7     9    1
     9     8    10    1
    10     9    11    2
    11    10    12    2
    12    11    12    1
