MODEL 1
REMARK VINA RESULT:      -7.2      0.000      0.000
REMARK SMILES O=C(O)CCc1ccccc1
REMARK SMILES IDX 4 1 2 2 1 3 3 4 5 6 6 7 7 8 11 9 8 10 10 11 9 12
REMARK H PARENT 3 5
REMARK Flexibility Score: inf
ROOT
ATOM      1  C   UNL     1       8.414  -0.697  -2.077  1.00  0.00     0.127 C 
ENDROOT
BRANCH   1   2
ATOM      2  C   UNL     1       8.401  -1.934  -2.879  1.00  0.00     0.303 C 
ATOM      3  O   UNL     1       7.294  -2.415  -3.243  1.00  0.00    -0.252 OA
BRANCH   2   4
ATOM      4  O   UNL     1       9.579  -2.595  -3.253  1.00  0.00    -0.481 OA
ATOM      5  H   UNL     1       9.941  -3.318  -2.645  1.00  0.00     0.296 HD
ENDBRANCH   2   4
ENDBRANCH   1   2
BRANCH   1   6
ATOM      6  C   UNL     1       7.075   0.018  -2.103  1.00  0.00     0.047 C 
BRANCH   6   7
ATOM      7  C   UNL     1       6.490   0.101  -0.739  1.00  0.00    -0.047 A 
ATOM      8  C   UNL     1       5.805   1.237  -0.331  1.00  0.00     0.004 A 
ATOM      9  C   UNL     1       6.599  -0.921   0.186  1.00  0.00     0.004 A 
ATOM     10  C   UNL     1       5.261   1.349   0.928  1.00  0.00     0.000 A 
ATOM     11  C   UNL     1       6.053  -0.808   1.446  1.00  0.00     0.000 A 
ATOM     12  C   UNL     1       5.377   0.323   1.844  1.00  0.00     0.000 A 
ENDBRANCH   6   7
ENDBRANCH   1   6
TORSDOF 4
ENDMDL
MODEL 2
REMARK VINA RESULT:      -7.2      0.066      1.422
REMARK SMILES O=C(O)CCc1ccccc1
REMARK SMILES IDX 4 1 2 2 1 3 3 4 5 6 6 7 7 8 11 9 8 10 10 11 9 12
REMARK H PARENT 3 5
REMARK Flexibility Score: inf
ROOT
ATOM      1  C   UNL     1       8.393  -0.636  -2.143  1.00  0.00     0.127 C 
ENDROOT
BRANCH   1   2
ATOM      2  C   UNL     1       8.405  -1.902  -2.897  1.00  0.00     0.303 C 
ATOM      3  O   UNL     1       7.308  -2.423  -3.236  1.00  0.00    -0.252 OA
BRANCH   2   4
ATOM      4  O   UNL     1       9.597  -2.549  -3.254  1.00  0.00    -0.481 OA
ATOM      5  H   UNL     1       9.684  -3.538  -3.067  1.00  0.00     0.296 HD
ENDBRANCH   2   4
ENDBRANCH   1   2
BRANCH   1   6
ATOM      6  C   UNL     1       7.025   0.022  -2.149  1.00  0.00     0.047 C 
BRANCH   6   7
ATOM      7  C   UNL     1       6.475   0.121  -0.771  1.00  0.00    -0.047 A 
ATOM      8  C   UNL     1       6.619  -0.929   0.125  1.00  0.00     0.004 A 
ATOM      9  C   UNL     1       5.795   1.235  -0.314  1.00  0.00     0.004 A 
ATOM     10  C   UNL     1       6.113  -0.873   1.403  1.00  0.00     0.000 A 
ATOM     11  C   UNL     1       5.289   1.289   0.966  1.00  0.00     0.000 A 
ATOM     12  C   UNL     1       5.434   0.243   1.849  1.00  0.00     0.000 A 
ENDBRANCH   6   7
ENDBRANCH   1   6
TORSDOF 4
ENDMDL
MODEL 3
REMARK VINA RESULT:      -6.8      3.314      5.152
REMARK SMILES O=C(O)CCc1ccccc1
REMARK SMILES IDX 4 1 2 2 1 3 3 4 5 6 6 7 7 8 11 9 8 10 10 11 9 12
REMARK H PARENT 3 5
REMARK Flexibility Score: inf
ROOT
ATOM      1  C   UNL     1       5.032   1.765   0.731  1.00  0.00     0.127 C 
ENDROOT
BRANCH   1   2
ATOM      2  C   UNL     1       4.499   1.102   1.934  1.00  0.00     0.303 C 
ATOM      3  O   UNL     1       5.188   0.209   2.498  1.00  0.00    -0.252 OA
BRANCH   2   4
ATOM      4  O   UNL     1       3.249   1.432   2.478  1.00  0.00    -0.481 OA
ATOM      5  H   UNL     1       2.463   1.542   1.851  1.00  0.00     0.296 HD
ENDBRANCH   2   4
ENDBRANCH   1   2
BRANCH   1   6
ATOM      6  C   UNL     1       6.548   1.855   0.749  1.00  0.00     0.047 C 
BRANCH   6   7
ATOM      7  C   UNL     1       7.143   1.025  -0.331  1.00  0.00    -0.047 A 
ATOM      8  C   UNL     1       8.479   1.168  -0.678  1.00  0.00     0.004 A 
ATOM      9  C   UNL     1       6.415   0.091  -1.045  1.00  0.00     0.004 A 
ATOM     10  C   UNL     1       9.057   0.423  -1.681  1.00  0.00     0.000 A 
ATOM     11  C   UNL     1       6.995  -0.655  -2.048  1.00  0.00     0.000 A 
ATOM     12  C   UNL     1       8.321  -0.506  -2.388  1.00  0.00     0.000 A 
ENDBRANCH   6   7
ENDBRANCH   1   6
TORSDOF 4
ENDMDL
MODEL 4
REMARK VINA RESULT:      -6.6      3.836      5.035
REMARK SMILES O=C(O)CCc1ccccc1
REMARK SMILES IDX 4 1 2 2 1 3 3 4 5 6 6 7 7 8 11 9 8 10 10 11 9 12
REMARK H PARENT 3 5
REMARK Flexibility Score: inf
ROOT
ATOM      1  C   UNL     1       5.498   2.914   0.060  1.00  0.00     0.127 C 
ENDROOT
BRANCH   1   2
ATOM      2  C   UNL     1       6.263   3.906   0.836  1.00  0.00     0.303 C 
ATOM      3  O   UNL     1       6.939   4.775   0.221  1.00  0.00    -0.252 OA
BRANCH   2   4
ATOM      4  O   UNL     1       6.265   3.919   2.238  1.00  0.00    -0.481 OA
ATOM      5  H   UNL     1       7.024   3.461   2.725  1.00  0.00     0.296 HD
ENDBRANCH   2   4
ENDBRANCH   1   2
BRANCH   1   6
ATOM      6  C   UNL     1       4.866   1.856   0.947  1.00  0.00     0.047 C 
BRANCH   6   7
ATOM      7  C   UNL     1       5.690   0.619   0.970  1.00  0.00    -0.047 A 
ATOM      8  C   UNL     1       5.701  -0.203   2.088  1.00  0.00     0.004 A 
ATOM      9  C   UNL     1       6.484   0.229  -0.092  1.00  0.00     0.004 A 
ATOM     10  C   UNL     1       6.461  -1.349   2.145  1.00  0.00     0.000 A 
ATOM     11  C   UNL     1       7.245  -0.919  -0.034  1.00  0.00     0.000 A 
ATOM     12  C   UNL     1       7.251  -1.729   1.079  1.00  0.00     0.000 A 
ENDBRANCH   6   7
ENDBRANCH   1   6
TORSDOF 4
ENDMDL
MODEL 5
REMARK VINA RESULT:      -6.5      2.046      2.238
REMARK SMILES O=C(O)CCc1ccccc1
REMARK SMILES IDX 4 1 2 2 1 3 3 4 5 6 6 7 7 8 11 9 8 10 10 11 9 12
REMARK H PARENT 3 5
REMARK Flexibility Score: inf
ROOT
ATOM      1  C   UNL     1       8.476   0.669  -1.672  1.00  0.00     0.127 C 
ENDROOT
BRANCH   1   2
ATOM      2  C   UNL     1       9.636   0.284  -0.849  1.00  0.00     0.303 C 
ATOM      3  O   UNL     1       9.469  -0.523   0.106  1.00  0.00    -0.252 OA
BRANCH   2   4
ATOM      4  O   UNL     1      10.924   0.783  -1.091  1.00  0.00    -0.481 OA
ATOM      5  H   UNL     1      11.662   0.129  -1.314  1.00  0.00     0.296 HD
ENDBRANCH   2   4
ENDBRANCH   1   2
BRANCH   1   6
ATOM      6  C   UNL     1       7.287  -0.248  -1.452  1.00  0.00     0.047 C 
BRANCH   6   7
ATOM      7  C   UNL     1       6.410   0.267  -0.368  1.00  0.00    -0.047 A 
ATOM      8  C   UNL     1       5.766   1.488  -0.499  1.00  0.00     0.004 A 
ATOM      9  C   UNL     1       6.198  -0.421   0.813  1.00  0.00     0.004 A 
ATOM     10  C   UNL     1       4.956   1.997   0.491  1.00  0.00     0.000 A 
ATOM     11  C   UNL     1       5.387   0.090   1.803  1.00  0.00     0.000 A 
ATOM     12  C   UNL     1       4.752   1.303   1.666  1.00  0.00     0.000 A 
ENDBRANCH   6   7
ENDBRANCH   1   6
TORSDOF 4
ENDMDL
