@<TRIPOS>MOLECULE
/home/cewinharhar/GITHUB/reincatalyze/data/processed/docking_pred/2023-Apr-25-2248_maxeplen10_maxtrainstep1000_exh16_gamma099_lrac3e-4_lrcr1e-3/ae62664a3c9eef67376bdc077c2faa7ac5a69a78_ligand_2.pdbqt
 12 12 0 0 0
SMALL
GASTEIGER

@<TRIPOS>ATOM
      1  C          8.6180   -0.6360   -2.2430 C.3     1  UNL1        0.1270
      2  C          8.5860   -1.9390   -2.9310 C.2     1  UNL1        0.3030
      3  O          7.4730   -2.4940   -3.1400 O.2     1  UNL1       -0.2520
      4  O          9.7530   -2.5850   -3.3630 O.3     1  UNL1       -0.4810
      5  H          9.7560   -3.0180   -4.2770 H       1  UNL1        0.2960
      6  C          7.2630    0.0490   -2.2480 C.3     1  UNL1        0.0470
      7  C          6.8030    0.3310   -0.8640 C.2     1  UNL1       -0.0470
      8  C          5.7630    1.2190   -0.6310 C.2     1  UNL1        0.0040
      9  C          7.3790   -0.2520    0.2500 C.2     1  UNL1        0.0040
     10  C          5.3210    1.5100    0.6400 C.2     1  UNL1        0.0000
     11  C          6.9360    0.0400    1.5220 C.2     1  UNL1        0.0000
     12  C          5.9040    0.9230    1.7450 C.2     1  UNL1        0.0000
@<TRIPOS>BOND
     1     5     4    1
     2     4     2    1
     3     3     2    2
     4     2     1    1
     5     6     1    1
     6     6     7    1
     7     7     8    2
     8     7     9    1
     9     8    10    1
    10     9    11    2
    11    10    12    2
    12    11    12    1
