@<TRIPOS>MOLECULE
/home/cewinharhar/GITHUB/reincatalyze/data/processed/docking_pred/2023-Apr-25-2248_maxeplen10_maxtrainstep1000_exh16_gamma099_lrac3e-4_lrcr1e-3/ae62664a3c9eef67376bdc077c2faa7ac5a69a78_ligand_2.pdbqt
 12 12 0 0 0
SMALL
GASTEIGER

@<TRIPOS>ATOM
      1  C          8.3700   -0.5660   -2.2910 C.3     1  UNL1        0.1270
      2  C          8.3910   -1.8820   -2.9550 C.2     1  UNL1        0.3030
      3  O          7.2990   -2.4320   -3.2600 O.2     1  UNL1       -0.2520
      4  O          9.5880   -2.5450   -3.2620 O.3     1  UNL1       -0.4810
      5  H         10.0980   -2.2640   -4.0890 H       1  UNL1        0.2960
      6  C          8.3190   -0.6880   -0.7790 C.3     1  UNL1        0.0470
      7  C          7.2200    0.1380   -0.2140 C.2     1  UNL1       -0.0470
      8  C          6.9670    0.1420    1.1500 C.2     1  UNL1        0.0040
      9  C          6.3960    0.9240   -0.9990 C.2     1  UNL1        0.0040
     10  C          5.9500    0.8870    1.7020 C.2     1  UNL1        0.0000
     11  C          5.3780    1.6700   -0.4440 C.2     1  UNL1        0.0000
     12  C          5.1320    1.6680    0.9100 C.2     1  UNL1        0.0000
@<TRIPOS>BOND
     1     5     4    1
     2     4     2    1
     3     3     2    2
     4     2     1    1
     5     1     6    1
     6     9    11    1
     7     9     7    2
     8     6     7    1
     9    11    12    2
    10     7     8    1
    11    12    10    1
    12     8    10    2
