@<TRIPOS>MOLECULE
/home/cewinharhar/GITHUB/reincatalyze/data/processed/docking_pred/2023-Apr-25-2248_maxeplen10_maxtrainstep1000_exh16_gamma099_lrac3e-4_lrcr1e-3/ae62664a3c9eef67376bdc077c2faa7ac5a69a78_ligand_2.pdbqt
 12 12 0 0 0
SMALL
GASTEIGER

@<TRIPOS>ATOM
      1  C          8.6640   -0.7250   -2.1380 C.3     1  UNL1        0.1270
      2  C          8.5790   -1.9650   -2.9290 C.2     1  UNL1        0.3030
      3  O          9.6290   -2.6330   -3.1350 O.2     1  UNL1       -0.2520
      4  O          7.3680   -2.4320   -3.4610 O.3     1  UNL1       -0.4810
      5  H          6.5330   -2.3620   -2.8950 H       1  UNL1        0.2960
      6  C          7.3990    0.1080   -2.2400 C.3     1  UNL1        0.0470
      7  C          6.8520    0.4130   -0.8920 C.2     1  UNL1       -0.0470
      8  C          7.4030   -0.1660    0.2430 C.2     1  UNL1        0.0040
      9  C          5.7810    1.2650   -0.6930 C.2     1  UNL1        0.0040
     10  C          6.9130    0.0880    1.5030 C.2     1  UNL1        0.0000
     11  C          5.2920    1.5180    0.5700 C.2     1  UNL1        0.0000
     12  C          5.8420    0.9390    1.6910 C.2     1  UNL1        0.0000
@<TRIPOS>BOND
     1     4     2    1
     2     4     5    1
     3     3     2    2
     4     2     1    1
     5     6     1    1
     6     6     7    1
     7     7     9    2
     8     7     8    1
     9     9    11    1
    10     8    10    2
    11    11    12    2
    12    10    12    1
