@<TRIPOS>MOLECULE
/home/cewinharhar/GITHUB/reincatalyze/data/processed/docking_pred/2023-Apr-25-2248_maxeplen10_maxtrainstep1000_exh16_gamma099_lrac3e-4_lrcr1e-3/ae62664a3c9eef67376bdc077c2faa7ac5a69a78_ligand_2.pdbqt
 12 12 0 0 0
SMALL
GASTEIGER

@<TRIPOS>ATOM
      1  C          5.0090    1.8200    0.7160 C.3     1  UNL1        0.1270
      2  C          4.5870    1.0960    1.9280 C.2     1  UNL1        0.3030
      3  O          3.4510    1.3370    2.4200 O.2     1  UNL1       -0.2520
      4  O          5.4050    0.1460    2.5540 O.3     1  UNL1       -0.4810
      5  H          6.0710   -0.3660    1.9910 H       1  UNL1        0.2960
      6  C          6.5130    2.0160    0.6590 C.3     1  UNL1        0.0470
      7  C          7.1250    1.1440   -0.3770 C.2     1  UNL1       -0.0470
      8  C          8.4820    1.2240   -0.6580 C.2     1  UNL1        0.0040
      9  C          6.3940    0.2310   -1.1140 C.2     1  UNL1        0.0040
     10  C          9.0760    0.4380   -1.6180 C.2     1  UNL1        0.0000
     11  C          6.9910   -0.5550   -2.0760 C.2     1  UNL1        0.0000
     12  C          8.3370   -0.4700   -2.3490 C.2     1  UNL1        0.0000
@<TRIPOS>BOND
     1    12    11    2
     2    12    10    1
     3    11     9    1
     4    10     8    2
     5     9     7    2
     6     8     7    1
     7     7     6    1
     8     6     1    1
     9     1     2    1
    10     2     3    2
    11     2     4    1
    12     5     4    1
