MODEL 1
REMARK VINA RESULT:      -7.1      0.000      0.000
REMARK SMILES O=C(O)CCc1ccccc1
REMARK SMILES IDX 4 1 2 2 1 3 3 4 5 6 6 7 7 8 11 9 8 10 10 11 9 12
REMARK H PARENT 3 5
REMARK Flexibility Score: inf
ROOT
ATOM      1  C   UNL     1       8.664  -0.725  -2.138  1.00  0.00     0.127 C 
ENDROOT
BRANCH   1   2
ATOM      2  C   UNL     1       8.579  -1.965  -2.929  1.00  0.00     0.303 C 
ATOM      3  O   UNL     1       9.629  -2.633  -3.135  1.00  0.00    -0.252 OA
BRANCH   2   4
ATOM      4  O   UNL     1       7.368  -2.432  -3.461  1.00  0.00    -0.481 OA
ATOM      5  H   UNL     1       6.533  -2.362  -2.895  1.00  0.00     0.296 HD
ENDBRANCH   2   4
ENDBRANCH   1   2
BRANCH   1   6
ATOM      6  C   UNL     1       7.399   0.108  -2.240  1.00  0.00     0.047 C 
BRANCH   6   7
ATOM      7  C   UNL     1       6.852   0.413  -0.892  1.00  0.00    -0.047 A 
ATOM      8  C   UNL     1       7.403  -0.166   0.243  1.00  0.00     0.004 A 
ATOM      9  C   UNL     1       5.781   1.265  -0.693  1.00  0.00     0.004 A 
ATOM     10  C   UNL     1       6.913   0.088   1.503  1.00  0.00     0.000 A 
ATOM     11  C   UNL     1       5.292   1.518   0.570  1.00  0.00     0.000 A 
ATOM     12  C   UNL     1       5.842   0.939   1.691  1.00  0.00     0.000 A 
ENDBRANCH   6   7
ENDBRANCH   1   6
TORSDOF 4
ENDMDL
MODEL 2
REMARK VINA RESULT:      -7.1      0.157      1.723
REMARK SMILES O=C(O)CCc1ccccc1
REMARK SMILES IDX 4 1 2 2 1 3 3 4 5 6 6 7 7 8 11 9 8 10 10 11 9 12
REMARK H PARENT 3 5
REMARK Flexibility Score: inf
ROOT
ATOM      1  C   UNL     1       8.618  -0.636  -2.243  1.00  0.00     0.127 C 
ENDROOT
BRANCH   1   2
ATOM      2  C   UNL     1       8.586  -1.939  -2.931  1.00  0.00     0.303 C 
ATOM      3  O   UNL     1       7.473  -2.494  -3.140  1.00  0.00    -0.252 OA
BRANCH   2   4
ATOM      4  O   UNL     1       9.753  -2.585  -3.363  1.00  0.00    -0.481 OA
ATOM      5  H   UNL     1       9.756  -3.018  -4.277  1.00  0.00     0.296 HD
ENDBRANCH   2   4
ENDBRANCH   1   2
BRANCH   1   6
ATOM      6  C   UNL     1       7.263   0.049  -2.248  1.00  0.00     0.047 C 
BRANCH   6   7
ATOM      7  C   UNL     1       6.803   0.331  -0.864  1.00  0.00    -0.047 A 
ATOM      8  C   UNL     1       5.763   1.219  -0.631  1.00  0.00     0.004 A 
ATOM      9  C   UNL     1       7.379  -0.252   0.250  1.00  0.00     0.004 A 
ATOM     10  C   UNL     1       5.321   1.510   0.640  1.00  0.00     0.000 A 
ATOM     11  C   UNL     1       6.936   0.040   1.522  1.00  0.00     0.000 A 
ATOM     12  C   UNL     1       5.904   0.923   1.745  1.00  0.00     0.000 A 
ENDBRANCH   6   7
ENDBRANCH   1   6
TORSDOF 4
ENDMDL
MODEL 3
REMARK VINA RESULT:      -6.9      0.582      1.380
REMARK SMILES O=C(O)CCc1ccccc1
REMARK SMILES IDX 4 1 2 2 1 3 3 4 5 6 6 7 7 8 11 9 8 10 10 11 9 12
REMARK H PARENT 3 5
REMARK Flexibility Score: inf
ROOT
ATOM      1  C   UNL     1       8.370  -0.566  -2.291  1.00  0.00     0.127 C 
ENDROOT
BRANCH   1   2
ATOM      2  C   UNL     1       8.391  -1.882  -2.955  1.00  0.00     0.303 C 
ATOM      3  O   UNL     1       7.299  -2.432  -3.260  1.00  0.00    -0.252 OA
BRANCH   2   4
ATOM      4  O   UNL     1       9.588  -2.545  -3.262  1.00  0.00    -0.481 OA
ATOM      5  H   UNL     1      10.098  -2.264  -4.089  1.00  0.00     0.296 HD
ENDBRANCH   2   4
ENDBRANCH   1   2
BRANCH   1   6
ATOM      6  C   UNL     1       8.319  -0.688  -0.779  1.00  0.00     0.047 C 
BRANCH   6   7
ATOM      7  C   UNL     1       7.220   0.138  -0.214  1.00  0.00    -0.047 A 
ATOM      8  C   UNL     1       6.967   0.142   1.150  1.00  0.00     0.004 A 
ATOM      9  C   UNL     1       6.396   0.924  -0.999  1.00  0.00     0.004 A 
ATOM     10  C   UNL     1       5.950   0.887   1.702  1.00  0.00     0.000 A 
ATOM     11  C   UNL     1       5.378   1.670  -0.444  1.00  0.00     0.000 A 
ATOM     12  C   UNL     1       5.132   1.668   0.910  1.00  0.00     0.000 A 
ENDBRANCH   6   7
ENDBRANCH   1   6
TORSDOF 4
ENDMDL
MODEL 4
REMARK VINA RESULT:      -6.9      3.325      5.053
REMARK SMILES O=C(O)CCc1ccccc1
REMARK SMILES IDX 4 1 2 2 1 3 3 4 5 6 6 7 7 8 11 9 8 10 10 11 9 12
REMARK H PARENT 3 5
REMARK Flexibility Score: inf
ROOT
ATOM      1  C   UNL     1       5.009   1.820   0.716  1.00  0.00     0.127 C 
ENDROOT
BRANCH   1   2
ATOM      2  C   UNL     1       4.587   1.096   1.928  1.00  0.00     0.303 C 
ATOM      3  O   UNL     1       3.451   1.337   2.420  1.00  0.00    -0.252 OA
BRANCH   2   4
ATOM      4  O   UNL     1       5.405   0.146   2.554  1.00  0.00    -0.481 OA
ATOM      5  H   UNL     1       6.071  -0.366   1.991  1.00  0.00     0.296 HD
ENDBRANCH   2   4
ENDBRANCH   1   2
BRANCH   1   6
ATOM      6  C   UNL     1       6.513   2.016   0.659  1.00  0.00     0.047 C 
BRANCH   6   7
ATOM      7  C   UNL     1       7.125   1.144  -0.377  1.00  0.00    -0.047 A 
ATOM      8  C   UNL     1       8.482   1.224  -0.658  1.00  0.00     0.004 A 
ATOM      9  C   UNL     1       6.394   0.231  -1.114  1.00  0.00     0.004 A 
ATOM     10  C   UNL     1       9.076   0.438  -1.618  1.00  0.00     0.000 A 
ATOM     11  C   UNL     1       6.991  -0.555  -2.076  1.00  0.00     0.000 A 
ATOM     12  C   UNL     1       8.337  -0.470  -2.349  1.00  0.00     0.000 A 
ENDBRANCH   6   7
ENDBRANCH   1   6
TORSDOF 4
ENDMDL
MODEL 5
REMARK VINA RESULT:      -6.5      3.728      5.228
REMARK SMILES O=C(O)CCc1ccccc1
REMARK SMILES IDX 4 1 2 2 1 3 3 4 5 6 6 7 7 8 11 9 8 10 10 11 9 12
REMARK H PARENT 3 5
REMARK Flexibility Score: inf
ROOT
ATOM      1  C   UNL     1       5.581   2.727   0.088  1.00  0.00     0.127 C 
ENDROOT
BRANCH   1   2
ATOM      2  C   UNL     1       6.271   3.789   0.842  1.00  0.00     0.303 C 
ATOM      3  O   UNL     1       6.817   4.734   0.210  1.00  0.00    -0.252 OA
BRANCH   2   4
ATOM      4  O   UNL     1       6.341   3.787   2.243  1.00  0.00    -0.481 OA
ATOM      5  H   UNL     1       5.917   3.020   2.747  1.00  0.00     0.296 HD
ENDBRANCH   2   4
ENDBRANCH   1   2
BRANCH   1   6
ATOM      6  C   UNL     1       5.990   1.339   0.548  1.00  0.00     0.047 C 
BRANCH   6   7
ATOM      7  C   UNL     1       6.886   0.691  -0.446  1.00  0.00    -0.047 A 
ATOM      8  C   UNL     1       8.174   1.165  -0.651  1.00  0.00     0.004 A 
ATOM      9  C   UNL     1       6.494  -0.390  -1.214  1.00  0.00     0.004 A 
ATOM     10  C   UNL     1       9.024   0.594  -1.571  1.00  0.00     0.000 A 
ATOM     11  C   UNL     1       7.347  -0.961  -2.134  1.00  0.00     0.000 A 
ATOM     12  C   UNL     1       8.623  -0.485  -2.333  1.00  0.00     0.000 A 
ENDBRANCH   6   7
ENDBRANCH   1   6
TORSDOF 4
ENDMDL
