MODEL 1
REMARK VINA RESULT:      -7.3      0.000      0.000
REMARK SMILES O=C(O)CCc1ccccc1
REMARK SMILES IDX 4 1 2 2 1 3 3 4 5 6 6 7 7 8 11 9 8 10 10 11 9 12
REMARK H PARENT 3 5
REMARK Flexibility Score: inf
ROOT
ATOM      1  C   UNL     1       8.411  -0.776  -2.000  1.00  0.00     0.127 C 
ENDROOT
BRANCH   1   2
ATOM      2  C   UNL     1       8.437  -1.958  -2.879  1.00  0.00     0.303 C 
ATOM      3  O   UNL     1       9.542  -2.516  -3.123  1.00  0.00    -0.252 OA
BRANCH   2   4
ATOM      4  O   UNL     1       7.274  -2.487  -3.456  1.00  0.00    -0.481 OA
ATOM      5  H   UNL     1       7.282  -2.713  -4.442  1.00  0.00     0.296 HD
ENDBRANCH   2   4
ENDBRANCH   1   2
BRANCH   1   6
ATOM      6  C   UNL     1       7.082  -0.044  -2.062  1.00  0.00     0.047 C 
BRANCH   6   7
ATOM      7  C   UNL     1       6.481   0.085  -0.709  1.00  0.00    -0.047 A 
ATOM      8  C   UNL     1       5.816   1.244  -0.337  1.00  0.00     0.004 A 
ATOM      9  C   UNL     1       6.556  -0.917   0.241  1.00  0.00     0.004 A 
ATOM     10  C   UNL     1       5.258   1.398   0.911  1.00  0.00     0.000 A 
ATOM     11  C   UNL     1       5.996  -0.762   1.491  1.00  0.00     0.000 A 
ATOM     12  C   UNL     1       5.340   0.393   1.853  1.00  0.00     0.000 A 
ENDBRANCH   6   7
ENDBRANCH   1   6
TORSDOF 4
ENDMDL
MODEL 2
REMARK VINA RESULT:      -7.3      0.097      1.723
REMARK SMILES O=C(O)CCc1ccccc1
REMARK SMILES IDX 4 1 2 2 1 3 3 4 5 6 6 7 7 8 11 9 8 10 10 11 9 12
REMARK H PARENT 3 5
REMARK Flexibility Score: inf
ROOT
ATOM      1  C   UNL     1       8.407  -0.742  -2.017  1.00  0.00     0.127 C 
ENDROOT
BRANCH   1   2
ATOM      2  C   UNL     1       8.399  -1.953  -2.857  1.00  0.00     0.303 C 
ATOM      3  O   UNL     1       7.295  -2.421  -3.246  1.00  0.00    -0.252 OA
BRANCH   2   4
ATOM      4  O   UNL     1       9.580  -2.603  -3.243  1.00  0.00    -0.481 OA
ATOM      5  H   UNL     1       9.544  -3.594  -3.441  1.00  0.00     0.296 HD
ENDBRANCH   2   4
ENDBRANCH   1   2
BRANCH   1   6
ATOM      6  C   UNL     1       7.090   0.011  -2.083  1.00  0.00     0.047 C 
BRANCH   6   7
ATOM      7  C   UNL     1       6.487   0.148  -0.731  1.00  0.00    -0.047 A 
ATOM      8  C   UNL     1       6.609  -0.870   0.205  1.00  0.00     0.004 A 
ATOM      9  C   UNL     1       5.777   1.267  -0.339  1.00  0.00     0.004 A 
ATOM     10  C   UNL     1       6.053  -0.777   1.460  1.00  0.00     0.000 A 
ATOM     11  C   UNL     1       5.221   1.358   0.919  1.00  0.00     0.000 A 
ATOM     12  C   UNL     1       5.344   0.344   1.841  1.00  0.00     0.000 A 
ENDBRANCH   6   7
ENDBRANCH   1   6
TORSDOF 4
ENDMDL
MODEL 3
REMARK VINA RESULT:      -6.7      3.365      5.075
REMARK SMILES O=C(O)CCc1ccccc1
REMARK SMILES IDX 4 1 2 2 1 3 3 4 5 6 6 7 7 8 11 9 8 10 10 11 9 12
REMARK H PARENT 3 5
REMARK Flexibility Score: inf
ROOT
ATOM      1  C   UNL     1       5.035   1.718   0.734  1.00  0.00     0.127 C 
ENDROOT
BRANCH   1   2
ATOM      2  C   UNL     1       4.578   1.019   1.948  1.00  0.00     0.303 C 
ATOM      3  O   UNL     1       5.330   0.156   2.477  1.00  0.00    -0.252 OA
BRANCH   2   4
ATOM      4  O   UNL     1       3.333   1.281   2.538  1.00  0.00    -0.481 OA
ATOM      5  H   UNL     1       3.020   0.683   3.291  1.00  0.00     0.296 HD
ENDBRANCH   2   4
ENDBRANCH   1   2
BRANCH   1   6
ATOM      6  C   UNL     1       6.540   1.919   0.720  1.00  0.00     0.047 C 
BRANCH   6   7
ATOM      7  C   UNL     1       7.174   1.117  -0.359  1.00  0.00    -0.047 A 
ATOM      8  C   UNL     1       6.424   0.226  -1.113  1.00  0.00     0.004 A 
ATOM      9  C   UNL     1       8.520   1.203  -0.663  1.00  0.00     0.004 A 
ATOM     10  C   UNL     1       6.983  -0.538  -2.112  1.00  0.00     0.000 A 
ATOM     11  C   UNL     1       9.079   0.438  -1.664  1.00  0.00     0.000 A 
ATOM     12  C   UNL     1       8.328  -0.445  -2.406  1.00  0.00     0.000 A 
ENDBRANCH   6   7
ENDBRANCH   1   6
TORSDOF 4
ENDMDL
MODEL 4
REMARK VINA RESULT:      -6.6      1.988      2.357
REMARK SMILES O=C(O)CCc1ccccc1
REMARK SMILES IDX 4 1 2 2 1 3 3 4 5 6 6 7 7 8 11 9 8 10 10 11 9 12
REMARK H PARENT 3 5
REMARK Flexibility Score: inf
ROOT
ATOM      1  C   UNL     1       8.360   0.320  -2.041  1.00  0.00     0.127 C 
ENDROOT
BRANCH   1   2
ATOM      2  C   UNL     1       9.487   0.381  -1.093  1.00  0.00     0.303 C 
ATOM      3  O   UNL     1       9.502  -0.405  -0.107  1.00  0.00    -0.252 OA
BRANCH   2   4
ATOM      4  O   UNL     1      10.548   1.284  -1.251  1.00  0.00    -0.481 OA
ATOM      5  H   UNL     1      10.745   1.934  -0.501  1.00  0.00     0.296 HD
ENDBRANCH   2   4
ENDBRANCH   1   2
BRANCH   1   6
ATOM      6  C   UNL     1       7.225  -0.548  -1.527  1.00  0.00     0.047 C 
BRANCH   6   7
ATOM      7  C   UNL     1       6.403   0.186  -0.529  1.00  0.00    -0.047 A 
ATOM      8  C   UNL     1       5.839   1.414  -0.844  1.00  0.00     0.004 A 
ATOM      9  C   UNL     1       6.165  -0.296   0.745  1.00  0.00     0.004 A 
ATOM     10  C   UNL     1       5.081   2.123   0.061  1.00  0.00     0.000 A 
ATOM     11  C   UNL     1       5.406   0.415   1.649  1.00  0.00     0.000 A 
ATOM     12  C   UNL     1       4.851   1.634   1.331  1.00  0.00     0.000 A 
ENDBRANCH   6   7
ENDBRANCH   1   6
TORSDOF 4
ENDMDL
MODEL 5
REMARK VINA RESULT:      -6.6      1.898      2.851
REMARK SMILES O=C(O)CCc1ccccc1
REMARK SMILES IDX 4 1 2 2 1 3 3 4 5 6 6 7 7 8 11 9 8 10 10 11 9 12
REMARK H PARENT 3 5
REMARK Flexibility Score: inf
ROOT
ATOM      1  C   UNL     1       8.175  -1.673   1.132  1.00  0.00     0.127 C 
ENDROOT
BRANCH   1   2
ATOM      2  C   UNL     1       8.516  -2.854   0.319  1.00  0.00     0.303 C 
ATOM      3  O   UNL     1       9.200  -3.777   0.838  1.00  0.00    -0.252 OA
BRANCH   2   4
ATOM      4  O   UNL     1       8.104  -2.988  -1.015  1.00  0.00    -0.481 OA
ATOM      5  H   UNL     1       8.103  -3.910  -1.430  1.00  0.00     0.296 HD
ENDBRANCH   2   4
ENDBRANCH   1   2
BRANCH   1   6
ATOM      6  C   UNL     1       6.681  -1.557   1.378  1.00  0.00     0.047 C 
BRANCH   6   7
ATOM      7  C   UNL     1       6.151  -0.277   0.840  1.00  0.00    -0.047 A 
ATOM      8  C   UNL     1       6.411   0.103  -0.469  1.00  0.00     0.004 A 
ATOM      9  C   UNL     1       5.393   0.597   1.598  1.00  0.00     0.004 A 
ATOM     10  C   UNL     1       5.943   1.286  -0.994  1.00  0.00     0.000 A 
ATOM     11  C   UNL     1       4.925   1.782   1.072  1.00  0.00     0.000 A 
ATOM     12  C   UNL     1       5.188   2.151  -0.228  1.00  0.00     0.000 A 
ENDBRANCH   6   7
ENDBRANCH   1   6
TORSDOF 4
ENDMDL
