@<TRIPOS>MOLECULE
/home/cewinharhar/GITHUB/reincatalyze/data/processed/docking_pred/2023-Apr-25-2248_maxeplen10_maxtrainstep1000_exh16_gamma099_lrac3e-4_lrcr1e-3/af0dd28332db5651a88784e76b435690c0a42449_ligand_2.pdbqt
 12 12 0 0 0
SMALL
GASTEIGER

@<TRIPOS>ATOM
      1  C          8.1750   -1.6730    1.1320 C.3     1  UNL1        0.1270
      2  C          8.5160   -2.8540    0.3190 C.2     1  UNL1        0.3030
      3  O          9.2000   -3.7770    0.8380 O.2     1  UNL1       -0.2520
      4  O          8.1040   -2.9880   -1.0150 O.3     1  UNL1       -0.4810
      5  H          8.1030   -3.9100   -1.4300 H       1  UNL1        0.2960
      6  C          6.6810   -1.5570    1.3780 C.3     1  UNL1        0.0470
      7  C          6.1510   -0.2770    0.8400 C.2     1  UNL1       -0.0470
      8  C          6.4110    0.1030   -0.4690 C.2     1  UNL1        0.0040
      9  C          5.3930    0.5970    1.5980 C.2     1  UNL1        0.0040
     10  C          5.9430    1.2860   -0.9940 C.2     1  UNL1        0.0000
     11  C          4.9250    1.7820    1.0720 C.2     1  UNL1        0.0000
     12  C          5.1880    2.1510   -0.2280 C.2     1  UNL1        0.0000
@<TRIPOS>BOND
     1     5     4    1
     2     4     2    1
     3    10     8    1
     4    10    12    2
     5     8     7    2
     6    12    11    1
     7     2     3    2
     8     2     1    1
     9     7     6    1
    10     7     9    1
    11    11     9    2
    12     1     6    1
