@<TRIPOS>MOLECULE
/home/cewinharhar/GITHUB/reincatalyze/data/processed/docking_pred/2023-Apr-25-2248_maxeplen10_maxtrainstep1000_exh16_gamma099_lrac3e-4_lrcr1e-3/af0dd28332db5651a88784e76b435690c0a42449_ligand_2.pdbqt
 12 12 0 0 0
SMALL
GASTEIGER

@<TRIPOS>ATOM
      1  C          8.4110   -0.7760   -2.0000 C.3     1  UNL1        0.1270
      2  C          8.4370   -1.9580   -2.8790 C.2     1  UNL1        0.3030
      3  O          9.5420   -2.5160   -3.1230 O.2     1  UNL1       -0.2520
      4  O          7.2740   -2.4870   -3.4560 O.3     1  UNL1       -0.4810
      5  H          7.2820   -2.7130   -4.4420 H       1  UNL1        0.2960
      6  C          7.0820   -0.0440   -2.0620 C.3     1  UNL1        0.0470
      7  C          6.4810    0.0850   -0.7090 C.2     1  UNL1       -0.0470
      8  C          5.8160    1.2440   -0.3370 C.2     1  UNL1        0.0040
      9  C          6.5560   -0.9170    0.2410 C.2     1  UNL1        0.0040
     10  C          5.2580    1.3980    0.9110 C.2     1  UNL1        0.0000
     11  C          5.9960   -0.7620    1.4910 C.2     1  UNL1        0.0000
     12  C          5.3400    0.3930    1.8530 C.2     1  UNL1        0.0000
@<TRIPOS>BOND
     1     5     4    1
     2     4     2    1
     3     3     2    2
     4     2     1    1
     5     6     1    1
     6     6     7    1
     7     7     8    2
     8     7     9    1
     9     8    10    1
    10     9    11    2
    11    10    12    2
    12    11    12    1
