@<TRIPOS>MOLECULE
/home/cewinharhar/GITHUB/reincatalyze/data/processed/docking_pred/2023-Apr-25-2248_maxeplen10_maxtrainstep1000_exh16_gamma099_lrac3e-4_lrcr1e-3/af0dd28332db5651a88784e76b435690c0a42449_ligand_2.pdbqt
 12 12 0 0 0
SMALL
GASTEIGER

@<TRIPOS>ATOM
      1  C          8.3600    0.3200   -2.0410 C.3     1  UNL1        0.1270
      2  C          9.4870    0.3810   -1.0930 C.2     1  UNL1        0.3030
      3  O          9.5020   -0.4050   -0.1070 O.2     1  UNL1       -0.2520
      4  O         10.5480    1.2840   -1.2510 O.3     1  UNL1       -0.4810
      5  H         10.7450    1.9340   -0.5010 H       1  UNL1        0.2960
      6  C          7.2250   -0.5480   -1.5270 C.3     1  UNL1        0.0470
      7  C          6.4030    0.1860   -0.5290 C.2     1  UNL1       -0.0470
      8  C          5.8390    1.4140   -0.8440 C.2     1  UNL1        0.0040
      9  C          6.1650   -0.2960    0.7450 C.2     1  UNL1        0.0040
     10  C          5.0810    2.1230    0.0610 C.2     1  UNL1        0.0000
     11  C          5.4060    0.4150    1.6490 C.2     1  UNL1        0.0000
     12  C          4.8510    1.6340    1.3310 C.2     1  UNL1        0.0000
@<TRIPOS>BOND
     1     1     6    1
     2     1     2    1
     3     6     7    1
     4     4     2    1
     5     4     5    1
     6     2     3    2
     7     8     7    2
     8     8    10    1
     9     7     9    1
    10    10    12    2
    11     9    11    2
    12    12    11    1
