@<TRIPOS>MOLECULE
/home/cewinharhar/GITHUB/reincatalyze/data/processed/docking_pred/2023-Apr-25-2248_maxeplen10_maxtrainstep1000_exh16_gamma099_lrac3e-4_lrcr1e-3/af0dd28332db5651a88784e76b435690c0a42449_ligand_2.pdbqt
 12 12 0 0 0
SMALL
GASTEIGER

@<TRIPOS>ATOM
      1  C          8.4070   -0.7420   -2.0170 C.3     1  UNL1        0.1270
      2  C          8.3990   -1.9530   -2.8570 C.2     1  UNL1        0.3030
      3  O          7.2950   -2.4210   -3.2460 O.2     1  UNL1       -0.2520
      4  O          9.5800   -2.6030   -3.2430 O.3     1  UNL1       -0.4810
      5  H          9.5440   -3.5940   -3.4410 H       1  UNL1        0.2960
      6  C          7.0900    0.0110   -2.0830 C.3     1  UNL1        0.0470
      7  C          6.4870    0.1480   -0.7310 C.2     1  UNL1       -0.0470
      8  C          6.6090   -0.8700    0.2050 C.2     1  UNL1        0.0040
      9  C          5.7770    1.2670   -0.3390 C.2     1  UNL1        0.0040
     10  C          6.0530   -0.7770    1.4600 C.2     1  UNL1        0.0000
     11  C          5.2210    1.3580    0.9190 C.2     1  UNL1        0.0000
     12  C          5.3440    0.3440    1.8410 C.2     1  UNL1        0.0000
@<TRIPOS>BOND
     1     5     4    1
     2     3     2    2
     3     4     2    1
     4     2     1    1
     5     6     1    1
     6     6     7    1
     7     7     9    2
     8     7     8    1
     9     9    11    1
    10     8    10    2
    11    11    12    2
    12    10    12    1
