@<TRIPOS>MOLECULE
/home/cewinharhar/GITHUB/reincatalyze/data/processed/docking_pred/2023-Apr-25-2248_maxeplen10_maxtrainstep1000_exh16_gamma099_lrac3e-4_lrcr1e-3/af0dd28332db5651a88784e76b435690c0a42449_ligand_2.pdbqt
 12 12 0 0 0
SMALL
GASTEIGER

@<TRIPOS>ATOM
      1  C          5.0350    1.7180    0.7340 C.3     1  UNL1        0.1270
      2  C          4.5780    1.0190    1.9480 C.2     1  UNL1        0.3030
      3  O          5.3300    0.1560    2.4770 O.2     1  UNL1       -0.2520
      4  O          3.3330    1.2810    2.5380 O.3     1  UNL1       -0.4810
      5  H          3.0200    0.6830    3.2910 H       1  UNL1        0.2960
      6  C          6.5400    1.9190    0.7200 C.3     1  UNL1        0.0470
      7  C          7.1740    1.1170   -0.3590 C.2     1  UNL1       -0.0470
      8  C          6.4240    0.2260   -1.1130 C.2     1  UNL1        0.0040
      9  C          8.5200    1.2030   -0.6630 C.2     1  UNL1        0.0040
     10  C          6.9830   -0.5380   -2.1120 C.2     1  UNL1        0.0000
     11  C          9.0790    0.4380   -1.6640 C.2     1  UNL1        0.0000
     12  C          8.3280   -0.4450   -2.4060 C.2     1  UNL1        0.0000
@<TRIPOS>BOND
     1    12    10    2
     2    12    11    1
     3    10     8    1
     4    11     9    2
     5     8     7    2
     6     9     7    1
     7     7     6    1
     8     6     1    1
     9     1     2    1
    10     2     3    2
    11     2     4    1
    12     4     5    1
