@<TRIPOS>MOLECULE
/home/cewinharhar/GITHUB/reincatalyze/data/processed/docking_pred/2023-Apr-25-2248_maxeplen10_maxtrainstep1000_exh16_gamma099_lrac3e-4_lrcr1e-3/af895cae38f50b8ad608cacdd29f7ae1ddca485c_ligand_2.pdbqt
 12 12 0 0 0
SMALL
GASTEIGER

@<TRIPOS>ATOM
      1  C          8.2400   -1.6240    0.9910 C.3     1  UNL1        0.1270
      2  C          8.5320   -2.8640    0.2510 C.2     1  UNL1        0.3030
      3  O          9.1530   -3.7940    0.8340 O.2     1  UNL1       -0.2520
      4  O          8.1410   -3.0480   -1.0830 O.3     1  UNL1       -0.4810
      5  H          8.8490   -3.0100   -1.8040 H       1  UNL1        0.2960
      6  C          6.7710   -1.5040    1.3540 C.3     1  UNL1        0.0470
      7  C          6.1950   -0.2380    0.8310 C.2     1  UNL1       -0.0470
      8  C          6.4470    0.1710   -0.4710 C.2     1  UNL1        0.0040
      9  C          5.4000    0.5950    1.5980 C.2     1  UNL1        0.0040
     10  C          5.9370    1.3430   -0.9800 C.2     1  UNL1        0.0000
     11  C          4.8910    1.7690    1.0860 C.2     1  UNL1        0.0000
     12  C          5.1460    2.1680   -0.2070 C.2     1  UNL1        0.0000
@<TRIPOS>BOND
     1     5     4    1
     2     4     2    1
     3    10     8    1
     4    10    12    2
     5     8     7    2
     6    12    11    1
     7     2     3    2
     8     2     1    1
     9     7     6    1
    10     7     9    1
    11     1     6    1
    12    11     9    2
