@<TRIPOS>MOLECULE
/home/cewinharhar/GITHUB/reincatalyze/data/processed/docking_pred/2023-Apr-25-2248_maxeplen10_maxtrainstep1000_exh16_gamma099_lrac3e-4_lrcr1e-3/af895cae38f50b8ad608cacdd29f7ae1ddca485c_ligand_2.pdbqt
 12 12 0 0 0
SMALL
GASTEIGER

@<TRIPOS>ATOM
      1  C          8.3820   -0.7200   -2.0370 C.3     1  UNL1        0.1270
      2  C          8.3890   -1.9370   -2.8670 C.2     1  UNL1        0.3030
      3  O          7.2900   -2.4200   -3.2560 O.2     1  UNL1       -0.2520
      4  O          9.5770   -2.5790   -3.2440 O.3     1  UNL1       -0.4810
      5  H         10.3530   -2.0130   -3.5600 H       1  UNL1        0.2960
      6  C          7.0450   -0.0010   -2.0840 C.3     1  UNL1        0.0470
      7  C          6.4640    0.1330   -0.7220 C.2     1  UNL1       -0.0470
      8  C          6.5820   -0.8960    0.2020 C.2     1  UNL1        0.0040
      9  C          5.7790    1.2610   -0.3090 C.2     1  UNL1        0.0040
     10  C          6.0470   -0.8060    1.4660 C.2     1  UNL1        0.0000
     11  C          5.2430    1.3480    0.9580 C.2     1  UNL1        0.0000
     12  C          5.3630    0.3230    1.8690 C.2     1  UNL1        0.0000
@<TRIPOS>BOND
     1     5     4    1
     2     3     2    2
     3     4     2    1
     4     2     1    1
     5     6     1    1
     6     6     7    1
     7     7     9    2
     8     7     8    1
     9     9    11    1
    10     8    10    2
    11    11    12    2
    12    10    12    1
