@<TRIPOS>MOLECULE
/home/cewinharhar/GITHUB/reincatalyze/data/processed/docking_pred/2023-Apr-25-2248_maxeplen10_maxtrainstep1000_exh16_gamma099_lrac3e-4_lrcr1e-3/af895cae38f50b8ad608cacdd29f7ae1ddca485c_ligand_2.pdbqt
 12 12 0 0 0
SMALL
GASTEIGER

@<TRIPOS>ATOM
      1  C          8.4080   -0.5840   -2.2000 C.3     1  UNL1        0.1270
      2  C          8.4460   -1.8680   -2.9220 C.2     1  UNL1        0.3030
      3  O          9.5550   -2.4450   -3.0870 O.2     1  UNL1       -0.2520
      4  O          7.2890   -2.4730   -3.4340 O.3     1  UNL1       -0.4810
      5  H          6.4050   -1.9960   -3.3230 H       1  UNL1        0.2960
      6  C          7.0110    0.0100   -2.1590 C.3     1  UNL1        0.0470
      7  C          6.4900    0.0510   -0.7680 C.2     1  UNL1       -0.0470
      8  C          5.8670    1.1900   -0.2790 C.2     1  UNL1        0.0040
      9  C          6.6010   -1.0160    0.1050 C.2     1  UNL1        0.0040
     10  C          5.3840    1.2630    1.0080 C.2     1  UNL1        0.0000
     11  C          6.1150   -0.9420    1.3930 C.2     1  UNL1        0.0000
     12  C          5.5000    0.1930    1.8710 C.2     1  UNL1        0.0000
@<TRIPOS>BOND
     1     4     5    1
     2     4     2    1
     3     3     2    2
     4     2     1    1
     5     1     6    1
     6     6     7    1
     7     7     8    2
     8     7     9    1
     9     8    10    1
    10     9    11    2
    11    10    12    2
    12    11    12    1
