MODEL 1
REMARK VINA RESULT:      -7.3      0.000      0.000
REMARK SMILES O=C(O)CCc1ccccc1
REMARK SMILES IDX 4 1 2 2 1 3 3 4 5 6 6 7 7 8 11 9 8 10 10 11 9 12
REMARK H PARENT 3 5
REMARK Flexibility Score: inf
ROOT
ATOM      1  C   UNL     1       8.408  -0.584  -2.200  1.00  0.00     0.127 C 
ENDROOT
BRANCH   1   2
ATOM      2  C   UNL     1       8.446  -1.868  -2.922  1.00  0.00     0.303 C 
ATOM      3  O   UNL     1       9.555  -2.445  -3.087  1.00  0.00    -0.252 OA
BRANCH   2   4
ATOM      4  O   UNL     1       7.289  -2.473  -3.434  1.00  0.00    -0.481 OA
ATOM      5  H   UNL     1       6.405  -1.996  -3.323  1.00  0.00     0.296 HD
ENDBRANCH   2   4
ENDBRANCH   1   2
BRANCH   1   6
ATOM      6  C   UNL     1       7.011   0.010  -2.159  1.00  0.00     0.047 C 
BRANCH   6   7
ATOM      7  C   UNL     1       6.490   0.051  -0.768  1.00  0.00    -0.047 A 
ATOM      8  C   UNL     1       5.867   1.190  -0.279  1.00  0.00     0.004 A 
ATOM      9  C   UNL     1       6.601  -1.016   0.105  1.00  0.00     0.004 A 
ATOM     10  C   UNL     1       5.384   1.263   1.008  1.00  0.00     0.000 A 
ATOM     11  C   UNL     1       6.115  -0.942   1.393  1.00  0.00     0.000 A 
ATOM     12  C   UNL     1       5.500   0.193   1.871  1.00  0.00     0.000 A 
ENDBRANCH   6   7
ENDBRANCH   1   6
TORSDOF 4
ENDMDL
MODEL 2
REMARK VINA RESULT:      -7.3      0.160      1.727
REMARK SMILES O=C(O)CCc1ccccc1
REMARK SMILES IDX 4 1 2 2 1 3 3 4 5 6 6 7 7 8 11 9 8 10 10 11 9 12
REMARK H PARENT 3 5
REMARK Flexibility Score: inf
ROOT
ATOM      1  C   UNL     1       8.382  -0.720  -2.037  1.00  0.00     0.127 C 
ENDROOT
BRANCH   1   2
ATOM      2  C   UNL     1       8.389  -1.937  -2.867  1.00  0.00     0.303 C 
ATOM      3  O   UNL     1       7.290  -2.420  -3.256  1.00  0.00    -0.252 OA
BRANCH   2   4
ATOM      4  O   UNL     1       9.577  -2.579  -3.244  1.00  0.00    -0.481 OA
ATOM      5  H   UNL     1      10.353  -2.013  -3.560  1.00  0.00     0.296 HD
ENDBRANCH   2   4
ENDBRANCH   1   2
BRANCH   1   6
ATOM      6  C   UNL     1       7.045  -0.001  -2.084  1.00  0.00     0.047 C 
BRANCH   6   7
ATOM      7  C   UNL     1       6.464   0.133  -0.722  1.00  0.00    -0.047 A 
ATOM      8  C   UNL     1       6.582  -0.896   0.202  1.00  0.00     0.004 A 
ATOM      9  C   UNL     1       5.779   1.261  -0.309  1.00  0.00     0.004 A 
ATOM     10  C   UNL     1       6.047  -0.806   1.466  1.00  0.00     0.000 A 
ATOM     11  C   UNL     1       5.243   1.348   0.958  1.00  0.00     0.000 A 
ATOM     12  C   UNL     1       5.363   0.323   1.869  1.00  0.00     0.000 A 
ENDBRANCH   6   7
ENDBRANCH   1   6
TORSDOF 4
ENDMDL
MODEL 3
REMARK VINA RESULT:      -6.8      3.398      5.092
REMARK SMILES O=C(O)CCc1ccccc1
REMARK SMILES IDX 4 1 2 2 1 3 3 4 5 6 6 7 7 8 11 9 8 10 10 11 9 12
REMARK H PARENT 3 5
REMARK Flexibility Score: inf
ROOT
ATOM      1  C   UNL     1       5.005   1.783   0.749  1.00  0.00     0.127 C 
ENDROOT
BRANCH   1   2
ATOM      2  C   UNL     1       4.460   1.106   1.939  1.00  0.00     0.303 C 
ATOM      3  O   UNL     1       5.130   0.185   2.480  1.00  0.00    -0.252 OA
BRANCH   2   4
ATOM      4  O   UNL     1       3.218   1.451   2.492  1.00  0.00    -0.481 OA
ATOM      5  H   UNL     1       2.452   0.797   2.407  1.00  0.00     0.296 HD
ENDBRANCH   2   4
ENDBRANCH   1   2
BRANCH   1   6
ATOM      6  C   UNL     1       6.519   1.887   0.792  1.00  0.00     0.047 C 
BRANCH   6   7
ATOM      7  C   UNL     1       7.139   1.105  -0.309  1.00  0.00    -0.047 A 
ATOM      8  C   UNL     1       6.388   0.195  -1.040  1.00  0.00     0.004 A 
ATOM      9  C   UNL     1       8.472   1.227  -0.656  1.00  0.00     0.004 A 
ATOM     10  C   UNL     1       6.935  -0.552  -2.059  1.00  0.00     0.000 A 
ATOM     11  C   UNL     1       9.018   0.479  -1.677  1.00  0.00     0.000 A 
ATOM     12  C   UNL     1       8.267  -0.423  -2.396  1.00  0.00     0.000 A 
ENDBRANCH   6   7
ENDBRANCH   1   6
TORSDOF 4
ENDMDL
MODEL 4
REMARK VINA RESULT:      -6.6      1.974      2.701
REMARK SMILES O=C(O)CCc1ccccc1
REMARK SMILES IDX 4 1 2 2 1 3 3 4 5 6 6 7 7 8 11 9 8 10 10 11 9 12
REMARK H PARENT 3 5
REMARK Flexibility Score: inf
ROOT
ATOM      1  C   UNL     1       8.350   0.309  -2.051  1.00  0.00     0.127 C 
ENDROOT
BRANCH   1   2
ATOM      2  C   UNL     1       9.473   0.403  -1.102  1.00  0.00     0.303 C 
ATOM      3  O   UNL     1       9.514  -0.390  -0.122  1.00  0.00    -0.252 OA
BRANCH   2   4
ATOM      4  O   UNL     1      10.501   1.345  -1.251  1.00  0.00    -0.481 OA
ATOM      5  H   UNL     1      11.455   1.016  -1.301  1.00  0.00     0.296 HD
ENDBRANCH   2   4
ENDBRANCH   1   2
BRANCH   1   6
ATOM      6  C   UNL     1       7.219  -0.552  -1.519  1.00  0.00     0.047 C 
BRANCH   6   7
ATOM      7  C   UNL     1       6.406   0.192  -0.521  1.00  0.00    -0.047 A 
ATOM      8  C   UNL     1       6.165  -0.344   0.736  1.00  0.00     0.004 A 
ATOM      9  C   UNL     1       5.848   1.429  -0.784  1.00  0.00     0.004 A 
ATOM     10  C   UNL     1       5.409   0.315   1.678  1.00  0.00     0.000 A 
ATOM     11  C   UNL     1       5.090   2.088   0.161  1.00  0.00     0.000 A 
ATOM     12  C   UNL     1       4.854   1.549   1.406  1.00  0.00     0.000 A 
ENDBRANCH   6   7
ENDBRANCH   1   6
TORSDOF 4
ENDMDL
MODEL 5
REMARK VINA RESULT:      -6.6      1.887      2.907
REMARK SMILES O=C(O)CCc1ccccc1
REMARK SMILES IDX 4 1 2 2 1 3 3 4 5 6 6 7 7 8 11 9 8 10 10 11 9 12
REMARK H PARENT 3 5
REMARK Flexibility Score: inf
ROOT
ATOM      1  C   UNL     1       8.240  -1.624   0.991  1.00  0.00     0.127 C 
ENDROOT
BRANCH   1   2
ATOM      2  C   UNL     1       8.532  -2.864   0.251  1.00  0.00     0.303 C 
ATOM      3  O   UNL     1       9.153  -3.794   0.834  1.00  0.00    -0.252 OA
BRANCH   2   4
ATOM      4  O   UNL     1       8.141  -3.048  -1.083  1.00  0.00    -0.481 OA
ATOM      5  H   UNL     1       8.849  -3.010  -1.804  1.00  0.00     0.296 HD
ENDBRANCH   2   4
ENDBRANCH   1   2
BRANCH   1   6
ATOM      6  C   UNL     1       6.771  -1.504   1.354  1.00  0.00     0.047 C 
BRANCH   6   7
ATOM      7  C   UNL     1       6.195  -0.238   0.831  1.00  0.00    -0.047 A 
ATOM      8  C   UNL     1       6.447   0.171  -0.471  1.00  0.00     0.004 A 
ATOM      9  C   UNL     1       5.400   0.595   1.598  1.00  0.00     0.004 A 
ATOM     10  C   UNL     1       5.937   1.343  -0.980  1.00  0.00     0.000 A 
ATOM     11  C   UNL     1       4.891   1.769   1.086  1.00  0.00     0.000 A 
ATOM     12  C   UNL     1       5.146   2.168  -0.207  1.00  0.00     0.000 A 
ENDBRANCH   6   7
ENDBRANCH   1   6
TORSDOF 4
ENDMDL
