@<TRIPOS>MOLECULE
/home/cewinharhar/GITHUB/reincatalyze/data/processed/docking_pred/2023-Apr-25-2248_maxeplen10_maxtrainstep1000_exh16_gamma099_lrac3e-4_lrcr1e-3/af895cae38f50b8ad608cacdd29f7ae1ddca485c_ligand_2.pdbqt
 12 12 0 0 0
SMALL
GASTEIGER

@<TRIPOS>ATOM
      1  C          8.3500    0.3090   -2.0510 C.3     1  UNL1        0.1270
      2  C          9.4730    0.4030   -1.1020 C.2     1  UNL1        0.3030
      3  O          9.5140   -0.3900   -0.1220 O.2     1  UNL1       -0.2520
      4  O         10.5010    1.3450   -1.2510 O.3     1  UNL1       -0.4810
      5  H         11.4550    1.0160   -1.3010 H       1  UNL1        0.2960
      6  C          7.2190   -0.5520   -1.5190 C.3     1  UNL1        0.0470
      7  C          6.4060    0.1920   -0.5210 C.2     1  UNL1       -0.0470
      8  C          6.1650   -0.3440    0.7360 C.2     1  UNL1        0.0040
      9  C          5.8480    1.4290   -0.7840 C.2     1  UNL1        0.0040
     10  C          5.4090    0.3150    1.6780 C.2     1  UNL1        0.0000
     11  C          5.0900    2.0880    0.1610 C.2     1  UNL1        0.0000
     12  C          4.8540    1.5490    1.4060 C.2     1  UNL1        0.0000
@<TRIPOS>BOND
     1     1     6    1
     2     1     2    1
     3     6     7    1
     4     5     4    1
     5     4     2    1
     6     2     3    2
     7     9     7    2
     8     9    11    1
     9     7     8    1
    10    11    12    2
    11     8    10    2
    12    12    10    1
