@<TRIPOS>MOLECULE
/home/cewinharhar/GITHUB/reincatalyze/data/processed/docking_pred/2023-Apr-25-2248_maxeplen10_maxtrainstep1000_exh16_gamma099_lrac3e-4_lrcr1e-3/af895cae38f50b8ad608cacdd29f7ae1ddca485c_ligand_2.pdbqt
 12 12 0 0 0
SMALL
GASTEIGER

@<TRIPOS>ATOM
      1  C          5.0050    1.7830    0.7490 C.3     1  UNL1        0.1270
      2  C          4.4600    1.1060    1.9390 C.2     1  UNL1        0.3030
      3  O          5.1300    0.1850    2.4800 O.2     1  UNL1       -0.2520
      4  O          3.2180    1.4510    2.4920 O.3     1  UNL1       -0.4810
      5  H          2.4520    0.7970    2.4070 H       1  UNL1        0.2960
      6  C          6.5190    1.8870    0.7920 C.3     1  UNL1        0.0470
      7  C          7.1390    1.1050   -0.3090 C.2     1  UNL1       -0.0470
      8  C          6.3880    0.1950   -1.0400 C.2     1  UNL1        0.0040
      9  C          8.4720    1.2270   -0.6560 C.2     1  UNL1        0.0040
     10  C          6.9350   -0.5520   -2.0590 C.2     1  UNL1        0.0000
     11  C          9.0180    0.4790   -1.6770 C.2     1  UNL1        0.0000
     12  C          8.2670   -0.4230   -2.3960 C.2     1  UNL1        0.0000
@<TRIPOS>BOND
     1    12    10    2
     2    12    11    1
     3    10     8    1
     4    11     9    2
     5     8     7    2
     6     9     7    1
     7     7     6    1
     8     1     6    1
     9     1     2    1
    10     2     3    2
    11     2     4    1
    12     5     4    1
