@<TRIPOS>MOLECULE
/home/cewinharhar/GITHUB/reincatalyze/data/processed/docking_pred/2023-Apr-25-2248_maxeplen10_maxtrainstep1000_exh16_gamma099_lrac3e-4_lrcr1e-3/af9628f04dddfdfce7c60ac864c84e5664a7a69f_ligand_2.pdbqt
 12 12 0 0 0
SMALL
GASTEIGER

@<TRIPOS>ATOM
      1  C          8.1330   -1.2390   -1.6030 C.3     1  UNL1        0.1270
      2  C          8.2980   -2.0980   -2.7880 C.2     1  UNL1        0.3030
      3  O          9.4550   -2.4830   -3.1090 O.2     1  UNL1       -0.2520
      4  O          7.2100   -2.5070   -3.5730 O.3     1  UNL1       -0.4810
      5  H          7.2820   -3.3770   -4.0840 H       1  UNL1        0.2960
      6  C          7.1530   -0.1050   -1.8480 C.3     1  UNL1        0.0470
      7  C          6.4250    0.2490   -0.6020 C.2     1  UNL1       -0.0470
      8  C          6.4160   -0.6160    0.4830 C.2     1  UNL1        0.0040
      9  C          5.7200    1.4300   -0.4570 C.2     1  UNL1        0.0040
     10  C          5.7430   -0.3230    1.6460 C.2     1  UNL1        0.0000
     11  C          5.0470    1.7230    0.7100 C.2     1  UNL1        0.0000
     12  C          5.0410    0.8590    1.7810 C.2     1  UNL1        0.0000
@<TRIPOS>BOND
     1     5     4    1
     2     4     2    1
     3     3     2    2
     4     2     1    1
     5     6     1    1
     6     6     7    1
     7     7     9    2
     8     7     8    1
     9     9    11    1
    10     8    10    2
    11    11    12    2
    12    10    12    1
