MODEL 1
REMARK VINA RESULT:      -7.3      0.000      0.000
REMARK SMILES O=C(O)CCc1ccccc1
REMARK SMILES IDX 4 1 2 2 1 3 3 4 5 6 6 7 7 8 11 9 8 10 10 11 9 12
REMARK H PARENT 3 5
REMARK Flexibility Score: inf
ROOT
ATOM      1  C   UNL     1       8.420  -0.684  -2.093  1.00  0.00     0.127 C 
ENDROOT
BRANCH   1   2
ATOM      2  C   UNL     1       8.442  -1.923  -2.890  1.00  0.00     0.303 C 
ATOM      3  O   UNL     1       9.544  -2.499  -3.097  1.00  0.00    -0.252 OA
BRANCH   2   4
ATOM      4  O   UNL     1       7.275  -2.487  -3.427  1.00  0.00    -0.481 OA
ATOM      5  H   UNL     1       7.344  -3.376  -3.903  1.00  0.00     0.296 HD
ENDBRANCH   2   4
ENDBRANCH   1   2
BRANCH   1   6
ATOM      6  C   UNL     1       7.057  -0.017  -2.106  1.00  0.00     0.047 C 
BRANCH   6   7
ATOM      7  C   UNL     1       6.494   0.071  -0.733  1.00  0.00    -0.047 A 
ATOM      8  C   UNL     1       5.838   1.218  -0.309  1.00  0.00     0.004 A 
ATOM      9  C   UNL     1       6.596  -0.958   0.186  1.00  0.00     0.004 A 
ATOM     10  C   UNL     1       5.316   1.335   0.959  1.00  0.00     0.000 A 
ATOM     11  C   UNL     1       6.072  -0.839   1.455  1.00  0.00     0.000 A 
ATOM     12  C   UNL     1       5.424   0.303   1.868  1.00  0.00     0.000 A 
ENDBRANCH   6   7
ENDBRANCH   1   6
TORSDOF 4
ENDMDL
MODEL 2
REMARK VINA RESULT:      -7.3      0.097      1.724
REMARK SMILES O=C(O)CCc1ccccc1
REMARK SMILES IDX 4 1 2 2 1 3 3 4 5 6 6 7 7 8 11 9 8 10 10 11 9 12
REMARK H PARENT 3 5
REMARK Flexibility Score: inf
ROOT
ATOM      1  C   UNL     1       8.393  -0.730  -2.034  1.00  0.00     0.127 C 
ENDROOT
BRANCH   1   2
ATOM      2  C   UNL     1       8.395  -1.943  -2.871  1.00  0.00     0.303 C 
ATOM      3  O   UNL     1       7.294  -2.424  -3.255  1.00  0.00    -0.252 OA
BRANCH   2   4
ATOM      4  O   UNL     1       9.582  -2.582  -3.259  1.00  0.00    -0.481 OA
ATOM      5  H   UNL     1       9.952  -2.395  -4.181  1.00  0.00     0.296 HD
ENDBRANCH   2   4
ENDBRANCH   1   2
BRANCH   1   6
ATOM      6  C   UNL     1       7.064   0.002  -2.088  1.00  0.00     0.047 C 
BRANCH   6   7
ATOM      7  C   UNL     1       6.475   0.136  -0.730  1.00  0.00    -0.047 A 
ATOM      8  C   UNL     1       6.581  -0.895   0.193  1.00  0.00     0.004 A 
ATOM      9  C   UNL     1       5.793   1.267  -0.318  1.00  0.00     0.004 A 
ATOM     10  C   UNL     1       6.037  -0.805   1.454  1.00  0.00     0.000 A 
ATOM     11  C   UNL     1       5.249   1.355   0.945  1.00  0.00     0.000 A 
ATOM     12  C   UNL     1       5.357   0.327   1.855  1.00  0.00     0.000 A 
ENDBRANCH   6   7
ENDBRANCH   1   6
TORSDOF 4
ENDMDL
MODEL 3
REMARK VINA RESULT:      -7.2      0.461      1.480
REMARK SMILES O=C(O)CCc1ccccc1
REMARK SMILES IDX 4 1 2 2 1 3 3 4 5 6 6 7 7 8 11 9 8 10 10 11 9 12
REMARK H PARENT 3 5
REMARK Flexibility Score: inf
ROOT
ATOM      1  C   UNL     1       8.133  -1.239  -1.603  1.00  0.00     0.127 C 
ENDROOT
BRANCH   1   2
ATOM      2  C   UNL     1       8.298  -2.098  -2.788  1.00  0.00     0.303 C 
ATOM      3  O   UNL     1       9.455  -2.483  -3.109  1.00  0.00    -0.252 OA
BRANCH   2   4
ATOM      4  O   UNL     1       7.210  -2.507  -3.573  1.00  0.00    -0.481 OA
ATOM      5  H   UNL     1       7.282  -3.377  -4.084  1.00  0.00     0.296 HD
ENDBRANCH   2   4
ENDBRANCH   1   2
BRANCH   1   6
ATOM      6  C   UNL     1       7.153  -0.105  -1.848  1.00  0.00     0.047 C 
BRANCH   6   7
ATOM      7  C   UNL     1       6.425   0.249  -0.602  1.00  0.00    -0.047 A 
ATOM      8  C   UNL     1       6.416  -0.616   0.483  1.00  0.00     0.004 A 
ATOM      9  C   UNL     1       5.720   1.430  -0.457  1.00  0.00     0.004 A 
ATOM     10  C   UNL     1       5.743  -0.323   1.646  1.00  0.00     0.000 A 
ATOM     11  C   UNL     1       5.047   1.723   0.710  1.00  0.00     0.000 A 
ATOM     12  C   UNL     1       5.041   0.859   1.781  1.00  0.00     0.000 A 
ENDBRANCH   6   7
ENDBRANCH   1   6
TORSDOF 4
ENDMDL
MODEL 4
REMARK VINA RESULT:      -6.8      3.388      5.090
REMARK SMILES O=C(O)CCc1ccccc1
REMARK SMILES IDX 4 1 2 2 1 3 3 4 5 6 6 7 7 8 11 9 8 10 10 11 9 12
REMARK H PARENT 3 5
REMARK Flexibility Score: inf
ROOT
ATOM      1  C   UNL     1       5.010   1.785   0.713  1.00  0.00     0.127 C 
ENDROOT
BRANCH   1   2
ATOM      2  C   UNL     1       4.483   1.116   1.915  1.00  0.00     0.303 C 
ATOM      3  O   UNL     1       5.169   0.210   2.462  1.00  0.00    -0.252 OA
BRANCH   2   4
ATOM      4  O   UNL     1       3.243   1.453   2.476  1.00  0.00    -0.481 OA
ATOM      5  H   UNL     1       2.885   0.888   3.235  1.00  0.00     0.296 HD
ENDBRANCH   2   4
ENDBRANCH   1   2
BRANCH   1   6
ATOM      6  C   UNL     1       6.521   1.920   0.746  1.00  0.00     0.047 C 
BRANCH   6   7
ATOM      7  C   UNL     1       7.152   1.121  -0.337  1.00  0.00    -0.047 A 
ATOM      8  C   UNL     1       6.399   0.232  -1.090  1.00  0.00     0.004 A 
ATOM      9  C   UNL     1       8.497   1.207  -0.644  1.00  0.00     0.004 A 
ATOM     10  C   UNL     1       6.955  -0.530  -2.092  1.00  0.00     0.000 A 
ATOM     11  C   UNL     1       9.053   0.443  -1.648  1.00  0.00     0.000 A 
ATOM     12  C   UNL     1       8.300  -0.438  -2.390  1.00  0.00     0.000 A 
ENDBRANCH   6   7
ENDBRANCH   1   6
TORSDOF 4
ENDMDL
MODEL 5
REMARK VINA RESULT:      -6.6      1.949      2.641
REMARK SMILES O=C(O)CCc1ccccc1
REMARK SMILES IDX 4 1 2 2 1 3 3 4 5 6 6 7 7 8 11 9 8 10 10 11 9 12
REMARK H PARENT 3 5
REMARK Flexibility Score: inf
ROOT
ATOM      1  C   UNL     1       8.252   0.244  -2.090  1.00  0.00     0.127 C 
ENDROOT
BRANCH   1   2
ATOM      2  C   UNL     1       9.414   0.359  -1.191  1.00  0.00     0.303 C 
ATOM      3  O   UNL     1       9.483  -0.392  -0.180  1.00  0.00    -0.252 OA
BRANCH   2   4
ATOM      4  O   UNL     1      10.451   1.275  -1.422  1.00  0.00    -0.481 OA
ATOM      5  H   UNL     1      11.206   1.329  -0.752  1.00  0.00     0.296 HD
ENDBRANCH   2   4
ENDBRANCH   1   2
BRANCH   1   6
ATOM      6  C   UNL     1       7.161  -0.636  -1.507  1.00  0.00     0.047 C 
BRANCH   6   7
ATOM      7  C   UNL     1       6.382   0.095  -0.475  1.00  0.00    -0.047 A 
ATOM      8  C   UNL     1       6.160  -0.467   0.775  1.00  0.00     0.004 A 
ATOM      9  C   UNL     1       5.835   1.346  -0.696  1.00  0.00     0.004 A 
ATOM     10  C   UNL     1       5.434   0.180   1.748  1.00  0.00     0.000 A 
ATOM     11  C   UNL     1       5.108   1.993   0.280  1.00  0.00     0.000 A 
ATOM     12  C   UNL     1       4.891   1.428   1.517  1.00  0.00     0.000 A 
ENDBRANCH   6   7
ENDBRANCH   1   6
TORSDOF 4
ENDMDL
