@<TRIPOS>MOLECULE
/home/cewinharhar/GITHUB/reincatalyze/data/processed/docking_pred/2023-Apr-25-2248_maxeplen10_maxtrainstep1000_exh16_gamma099_lrac3e-4_lrcr1e-3/af9628f04dddfdfce7c60ac864c84e5664a7a69f_ligand_2.pdbqt
 12 12 0 0 0
SMALL
GASTEIGER

@<TRIPOS>ATOM
      1  C          8.4200   -0.6840   -2.0930 C.3     1  UNL1        0.1270
      2  C          8.4420   -1.9230   -2.8900 C.2     1  UNL1        0.3030
      3  O          9.5440   -2.4990   -3.0970 O.2     1  UNL1       -0.2520
      4  O          7.2750   -2.4870   -3.4270 O.3     1  UNL1       -0.4810
      5  H          7.3440   -3.3760   -3.9030 H       1  UNL1        0.2960
      6  C          7.0570   -0.0170   -2.1060 C.3     1  UNL1        0.0470
      7  C          6.4940    0.0710   -0.7330 C.2     1  UNL1       -0.0470
      8  C          5.8380    1.2180   -0.3090 C.2     1  UNL1        0.0040
      9  C          6.5960   -0.9580    0.1860 C.2     1  UNL1        0.0040
     10  C          5.3160    1.3350    0.9590 C.2     1  UNL1        0.0000
     11  C          6.0720   -0.8390    1.4550 C.2     1  UNL1        0.0000
     12  C          5.4240    0.3030    1.8680 C.2     1  UNL1        0.0000
@<TRIPOS>BOND
     1     5     4    1
     2     4     2    1
     3     3     2    2
     4     2     1    1
     5     6     1    1
     6     6     7    1
     7     7     8    2
     8     7     9    1
     9     8    10    1
    10     9    11    2
    11    10    12    2
    12    11    12    1
