@<TRIPOS>MOLECULE
/home/cewinharhar/GITHUB/reincatalyze/data/processed/docking_pred/2023-Apr-25-2248_maxeplen10_maxtrainstep1000_exh16_gamma099_lrac3e-4_lrcr1e-3/af9628f04dddfdfce7c60ac864c84e5664a7a69f_ligand_2.pdbqt
 12 12 0 0 0
SMALL
GASTEIGER

@<TRIPOS>ATOM
      1  C          8.2520    0.2440   -2.0900 C.3     1  UNL1        0.1270
      2  C          9.4140    0.3590   -1.1910 C.2     1  UNL1        0.3030
      3  O          9.4830   -0.3920   -0.1800 O.2     1  UNL1       -0.2520
      4  O         10.4510    1.2750   -1.4220 O.3     1  UNL1       -0.4810
      5  H         11.2060    1.3290   -0.7520 H       1  UNL1        0.2960
      6  C          7.1610   -0.6360   -1.5070 C.3     1  UNL1        0.0470
      7  C          6.3820    0.0950   -0.4750 C.2     1  UNL1       -0.0470
      8  C          6.1600   -0.4670    0.7750 C.2     1  UNL1        0.0040
      9  C          5.8350    1.3460   -0.6960 C.2     1  UNL1        0.0040
     10  C          5.4340    0.1800    1.7480 C.2     1  UNL1        0.0000
     11  C          5.1080    1.9930    0.2800 C.2     1  UNL1        0.0000
     12  C          4.8910    1.4280    1.5170 C.2     1  UNL1        0.0000
@<TRIPOS>BOND
     1     1     6    1
     2     1     2    1
     3     6     7    1
     4     4     2    1
     5     4     5    1
     6     2     3    2
     7     9     7    2
     8     9    11    1
     9     7     8    1
    10    11    12    2
    11     8    10    2
    12    12    10    1
