@<TRIPOS>MOLECULE
/home/cewinharhar/GITHUB/reincatalyze/data/processed/docking_pred/2023-Apr-25-2248_maxeplen10_maxtrainstep1000_exh16_gamma099_lrac3e-4_lrcr1e-3/af9628f04dddfdfce7c60ac864c84e5664a7a69f_ligand_2.pdbqt
 12 12 0 0 0
SMALL
GASTEIGER

@<TRIPOS>ATOM
      1  C          8.3930   -0.7300   -2.0340 C.3     1  UNL1        0.1270
      2  C          8.3950   -1.9430   -2.8710 C.2     1  UNL1        0.3030
      3  O          7.2940   -2.4240   -3.2550 O.2     1  UNL1       -0.2520
      4  O          9.5820   -2.5820   -3.2590 O.3     1  UNL1       -0.4810
      5  H          9.9520   -2.3950   -4.1810 H       1  UNL1        0.2960
      6  C          7.0640    0.0020   -2.0880 C.3     1  UNL1        0.0470
      7  C          6.4750    0.1360   -0.7300 C.2     1  UNL1       -0.0470
      8  C          6.5810   -0.8950    0.1930 C.2     1  UNL1        0.0040
      9  C          5.7930    1.2670   -0.3180 C.2     1  UNL1        0.0040
     10  C          6.0370   -0.8050    1.4540 C.2     1  UNL1        0.0000
     11  C          5.2490    1.3550    0.9450 C.2     1  UNL1        0.0000
     12  C          5.3570    0.3270    1.8550 C.2     1  UNL1        0.0000
@<TRIPOS>BOND
     1     5     4    1
     2     4     2    1
     3     3     2    2
     4     2     1    1
     5     6     1    1
     6     6     7    1
     7     7     9    2
     8     7     8    1
     9     9    11    1
    10     8    10    2
    11    11    12    2
    12    10    12    1
