@<TRIPOS>MOLECULE
/home/cewinharhar/GITHUB/reincatalyze/data/processed/docking_pred/2023-Apr-25-2248_maxeplen10_maxtrainstep1000_exh16_gamma099_lrac3e-4_lrcr1e-3/b0253e2818c1de1129519fa2afa58b59888d8d60_ligand_2.pdbqt
 12 12 0 0 0
SMALL
GASTEIGER

@<TRIPOS>ATOM
      1  C          8.2920    0.2630   -2.1450 C.3     1  UNL1        0.1270
      2  C          9.4290    0.4030   -1.2180 C.2     1  UNL1        0.3030
      3  O          9.5030   -0.3630   -0.2190 O.2     1  UNL1       -0.2520
      4  O         10.4360    1.3600   -1.4090 O.3     1  UNL1       -0.4810
      5  H         10.6360    2.0080   -0.6580 H       1  UNL1        0.2960
      6  C          7.1640   -0.5590   -1.5490 C.3     1  UNL1        0.0470
      7  C          6.3660    0.2470   -0.5890 C.2     1  UNL1       -0.0470
      8  C          6.1440   -0.2070    0.7030 C.2     1  UNL1        0.0040
      9  C          5.8030    1.4650   -0.9220 C.2     1  UNL1        0.0040
     10  C          5.4010    0.5110    1.6120 C.2     1  UNL1        0.0000
     11  C          5.0590    2.1830   -0.0100 C.2     1  UNL1        0.0000
     12  C          4.8420    1.7250    1.2700 C.2     1  UNL1        0.0000
@<TRIPOS>BOND
     1     1     6    1
     2     1     2    1
     3     6     7    1
     4     4     2    1
     5     4     5    1
     6     2     3    2
     7     9     7    2
     8     9    11    1
     9     7     8    1
    10    11    12    2
    11     8    10    2
    12    12    10    1
