@<TRIPOS>MOLECULE
/home/cewinharhar/GITHUB/reincatalyze/data/processed/docking_pred/2023-Apr-25-2248_maxeplen10_maxtrainstep1000_exh16_gamma099_lrac3e-4_lrcr1e-3/b0253e2818c1de1129519fa2afa58b59888d8d60_ligand_2.pdbqt
 12 12 0 0 0
SMALL
GASTEIGER

@<TRIPOS>ATOM
      1  C          4.9920    1.7900    0.7410 C.3     1  UNL1        0.1270
      2  C          4.4530    1.1120    1.9330 C.2     1  UNL1        0.3030
      3  O          5.1270    0.1930    2.4730 O.2     1  UNL1       -0.2520
      4  O          3.2130    1.4550    2.4910 O.3     1  UNL1       -0.4810
      5  H          3.2000    2.0030    3.3410 H       1  UNL1        0.2960
      6  C          6.5050    1.9100    0.7840 C.3     1  UNL1        0.0470
      7  C          7.1340    1.1270   -0.3120 C.2     1  UNL1       -0.0470
      8  C          6.3850    0.2290   -1.0590 C.2     1  UNL1        0.0040
      9  C          8.4730    1.2380   -0.6380 C.2     1  UNL1        0.0040
     10  C          6.9400   -0.5180   -2.0730 C.2     1  UNL1        0.0000
     11  C          9.0270    0.4890   -1.6540 C.2     1  UNL1        0.0000
     12  C          8.2780   -0.4010   -2.3900 C.2     1  UNL1        0.0000
@<TRIPOS>BOND
     1    12    10    2
     2    12    11    1
     3    10     8    1
     4    11     9    2
     5     8     7    2
     6     9     7    1
     7     7     6    1
     8     1     6    1
     9     1     2    1
    10     2     3    2
    11     2     4    1
    12     4     5    1
