@<TRIPOS>MOLECULE
/home/cewinharhar/GITHUB/reincatalyze/data/processed/docking_pred/2023-Apr-25-2248_maxeplen10_maxtrainstep1000_exh16_gamma099_lrac3e-4_lrcr1e-3/b0253e2818c1de1129519fa2afa58b59888d8d60_ligand_2.pdbqt
 12 12 0 0 0
SMALL
GASTEIGER

@<TRIPOS>ATOM
      1  C          8.2600   -1.6730    1.1900 C.3     1  UNL1        0.1270
      2  C          8.6540   -2.9010    0.4760 C.2     1  UNL1        0.3030
      3  O          9.3840   -3.7440    1.0650 O.2     1  UNL1       -0.2520
      4  O          8.2450   -3.1650   -0.8390 O.3     1  UNL1       -0.4810
      5  H          8.7600   -2.7440   -1.6000 H       1  UNL1        0.2960
      6  C          6.7590   -1.5920    1.4040 C.3     1  UNL1        0.0470
      7  C          6.2110   -0.3220    0.8590 C.2     1  UNL1       -0.0470
      8  C          6.4700    0.0560   -0.4500 C.2     1  UNL1        0.0040
      9  C          5.4370    0.5420    1.6110 C.2     1  UNL1        0.0040
     10  C          5.9870    1.2300   -0.9810 C.2     1  UNL1        0.0000
     11  C          4.9530    1.7180    1.0780 C.2     1  UNL1        0.0000
     12  C          5.2150    2.0870   -0.2220 C.2     1  UNL1        0.0000
@<TRIPOS>BOND
     1     5     4    1
     2    10     8    1
     3    10    12    2
     4     4     2    1
     5     8     7    2
     6    12    11    1
     7     2     3    2
     8     2     1    1
     9     7     6    1
    10     7     9    1
    11    11     9    2
    12     1     6    1
