@<TRIPOS>MOLECULE
/home/cewinharhar/GITHUB/reincatalyze/data/processed/docking_pred/2023-Apr-25-2248_maxeplen10_maxtrainstep1000_exh16_gamma099_lrac3e-4_lrcr1e-3/b0253e2818c1de1129519fa2afa58b59888d8d60_ligand_2.pdbqt
 12 12 0 0 0
SMALL
GASTEIGER

@<TRIPOS>ATOM
      1  C          8.4160   -0.6370   -2.1580 C.3     1  UNL1        0.1270
      2  C          8.4420   -1.9040   -2.9100 C.2     1  UNL1        0.3030
      3  O          9.5460   -2.4890   -3.0850 O.2     1  UNL1       -0.2520
      4  O          7.2800   -2.4860   -3.4370 O.3     1  UNL1       -0.4810
      5  H          6.7910   -2.0010   -4.1770 H       1  UNL1        0.2960
      6  C          7.0380    0.0000   -2.1560 C.3     1  UNL1        0.0470
      7  C          6.4980    0.0990   -0.7750 C.2     1  UNL1       -0.0470
      8  C          6.6400   -0.9530    0.1180 C.2     1  UNL1        0.0040
      9  C          5.8280    1.2170   -0.3110 C.2     1  UNL1        0.0040
     10  C          6.1430   -0.8970    1.3990 C.2     1  UNL1        0.0000
     11  C          5.3310    1.2720    0.9730 C.2     1  UNL1        0.0000
     12  C          5.4750    0.2230    1.8520 C.2     1  UNL1        0.0000
@<TRIPOS>BOND
     1     5     4    1
     2     4     2    1
     3     3     2    2
     4     2     1    1
     5     1     6    1
     6     6     7    1
     7     7     9    2
     8     7     8    1
     9     9    11    1
    10     8    10    2
    11    11    12    2
    12    10    12    1
