@<TRIPOS>MOLECULE
/home/cewinharhar/GITHUB/reincatalyze/data/processed/docking_pred/2023-Apr-25-2248_maxeplen10_maxtrainstep1000_exh16_gamma099_lrac3e-4_lrcr1e-3/b0253e2818c1de1129519fa2afa58b59888d8d60_ligand_2.pdbqt
 12 12 0 0 0
SMALL
GASTEIGER

@<TRIPOS>ATOM
      1  C          8.4160   -0.6160   -2.1750 C.3     1  UNL1        0.1270
      2  C          8.4560   -1.8910   -2.9130 C.2     1  UNL1        0.3030
      3  O          9.5670   -2.4610   -3.0910 O.2     1  UNL1       -0.2520
      4  O          7.2990   -2.4950   -3.4250 O.3     1  UNL1       -0.4810
      5  H          6.6130   -2.8540   -2.7750 H       1  UNL1        0.2960
      6  C          7.0270   -0.0040   -2.1610 C.3     1  UNL1        0.0470
      7  C          6.4890    0.0630   -0.7770 C.2     1  UNL1       -0.0470
      8  C          5.8340    1.2010   -0.3270 C.2     1  UNL1        0.0040
      9  C          6.6160   -0.9760    0.1270 C.2     1  UNL1        0.0040
     10  C          5.3340    1.2980    0.9510 C.2     1  UNL1        0.0000
     11  C          6.1150   -0.8760    1.4070 C.2     1  UNL1        0.0000
     12  C          5.4670    0.2560    1.8460 C.2     1  UNL1        0.0000
@<TRIPOS>BOND
     1     4     2    1
     2     4     5    1
     3     3     2    2
     4     2     1    1
     5     1     6    1
     6     6     7    1
     7     7     8    2
     8     7     9    1
     9     8    10    1
    10     9    11    2
    11    10    12    2
    12    11    12    1
