@<TRIPOS>MOLECULE
/home/cewinharhar/GITHUB/reincatalyze/data/processed/docking_pred/2023-Apr-25-2248_maxeplen10_maxtrainstep1000_exh16_gamma099_lrac3e-4_lrcr1e-3/b0dbf451e4e891e0fb60bf6ca530f921e690d9da_ligand_2.pdbqt
 12 12 0 0 0
SMALL
GASTEIGER

@<TRIPOS>ATOM
      1  C          8.4100   -0.6910   -2.0780 C.3     1  UNL1        0.1270
      2  C          8.3990   -1.9270   -2.8790 C.2     1  UNL1        0.3030
      3  O          7.2930   -2.4120   -3.2420 O.2     1  UNL1       -0.2520
      4  O          9.5790   -2.5850   -3.2570 O.3     1  UNL1       -0.4810
      5  H          9.7540   -2.7370   -4.2410 H       1  UNL1        0.2960
      6  C          7.0710    0.0230   -2.1040 C.3     1  UNL1        0.0470
      7  C          6.4860    0.1090   -0.7410 C.2     1  UNL1       -0.0470
      8  C          5.7930    1.2420   -0.3380 C.2     1  UNL1        0.0040
      9  C          6.6030   -0.9070    0.1900 C.2     1  UNL1        0.0040
     10  C          5.2490    1.3560    0.9210 C.2     1  UNL1        0.0000
     11  C          6.0580   -0.7910    1.4500 C.2     1  UNL1        0.0000
     12  C          5.3730    0.3360    1.8430 C.2     1  UNL1        0.0000
@<TRIPOS>BOND
     1     5     4    1
     2     4     2    1
     3     3     2    2
     4     2     1    1
     5     6     1    1
     6     6     7    1
     7     7     8    2
     8     7     9    1
     9     8    10    1
    10     9    11    2
    11    10    12    2
    12    11    12    1
