@<TRIPOS>MOLECULE
/home/cewinharhar/GITHUB/reincatalyze/data/processed/docking_pred/2023-Apr-25-2248_maxeplen10_maxtrainstep1000_exh16_gamma099_lrac3e-4_lrcr1e-3/b0dbf451e4e891e0fb60bf6ca530f921e690d9da_ligand_2.pdbqt
 12 12 0 0 0
SMALL
GASTEIGER

@<TRIPOS>ATOM
      1  C          5.0130    1.7840    0.7290 C.3     1  UNL1        0.1270
      2  C          4.4770    1.1110    1.9250 C.2     1  UNL1        0.3030
      3  O          5.1560    0.2000    2.4720 O.2     1  UNL1       -0.2520
      4  O          3.2340    1.4490    2.4800 O.3     1  UNL1       -0.4810
      5  H          3.2090    1.8260    3.4170 H       1  UNL1        0.2960
      6  C          6.5260    1.9040    0.7680 C.3     1  UNL1        0.0470
      7  C          7.1510    1.1130   -0.3240 C.2     1  UNL1       -0.0470
      8  C          6.4010    0.2080   -1.0610 C.2     1  UNL1        0.0040
      9  C          8.4890    1.2220   -0.6560 C.2     1  UNL1        0.0040
     10  C          6.9520   -0.5470   -2.0720 C.2     1  UNL1        0.0000
     11  C          9.0400    0.4660   -1.6680 C.2     1  UNL1        0.0000
     12  C          8.2890   -0.4310   -2.3940 C.2     1  UNL1        0.0000
@<TRIPOS>BOND
     1    12    10    2
     2    12    11    1
     3    10     8    1
     4    11     9    2
     5     8     7    2
     6     9     7    1
     7     7     6    1
     8     1     6    1
     9     1     2    1
    10     2     3    2
    11     2     4    1
    12     4     5    1
