MODEL 1
REMARK VINA RESULT:      -7.3      0.000      0.000
REMARK SMILES O=C(O)CCc1ccccc1
REMARK SMILES IDX 4 1 2 2 1 3 3 4 5 6 6 7 7 8 11 9 8 10 10 11 9 12
REMARK H PARENT 3 5
REMARK Flexibility Score: inf
ROOT
ATOM      1  C   UNL     1       8.410  -0.691  -2.078  1.00  0.00     0.127 C 
ENDROOT
BRANCH   1   2
ATOM      2  C   UNL     1       8.399  -1.927  -2.879  1.00  0.00     0.303 C 
ATOM      3  O   UNL     1       7.293  -2.412  -3.242  1.00  0.00    -0.252 OA
BRANCH   2   4
ATOM      4  O   UNL     1       9.579  -2.585  -3.257  1.00  0.00    -0.481 OA
ATOM      5  H   UNL     1       9.754  -2.737  -4.241  1.00  0.00     0.296 HD
ENDBRANCH   2   4
ENDBRANCH   1   2
BRANCH   1   6
ATOM      6  C   UNL     1       7.071   0.023  -2.104  1.00  0.00     0.047 C 
BRANCH   6   7
ATOM      7  C   UNL     1       6.486   0.109  -0.741  1.00  0.00    -0.047 A 
ATOM      8  C   UNL     1       5.793   1.242  -0.338  1.00  0.00     0.004 A 
ATOM      9  C   UNL     1       6.603  -0.907   0.190  1.00  0.00     0.004 A 
ATOM     10  C   UNL     1       5.249   1.356   0.921  1.00  0.00     0.000 A 
ATOM     11  C   UNL     1       6.058  -0.791   1.450  1.00  0.00     0.000 A 
ATOM     12  C   UNL     1       5.373   0.336   1.843  1.00  0.00     0.000 A 
ENDBRANCH   6   7
ENDBRANCH   1   6
TORSDOF 4
ENDMDL
MODEL 2
REMARK VINA RESULT:      -7.2      0.072      1.422
REMARK SMILES O=C(O)CCc1ccccc1
REMARK SMILES IDX 4 1 2 2 1 3 3 4 5 6 6 7 7 8 11 9 8 10 10 11 9 12
REMARK H PARENT 3 5
REMARK Flexibility Score: inf
ROOT
ATOM      1  C   UNL     1       8.377  -0.626  -2.156  1.00  0.00     0.127 C 
ENDROOT
BRANCH   1   2
ATOM      2  C   UNL     1       8.389  -1.899  -2.898  1.00  0.00     0.303 C 
ATOM      3  O   UNL     1       7.293  -2.415  -3.248  1.00  0.00    -0.252 OA
BRANCH   2   4
ATOM      4  O   UNL     1       9.581  -2.559  -3.230  1.00  0.00    -0.481 OA
ATOM      5  H   UNL     1       9.894  -2.537  -4.191  1.00  0.00     0.296 HD
ENDBRANCH   2   4
ENDBRANCH   1   2
BRANCH   1   6
ATOM      6  C   UNL     1       7.004   0.023  -2.155  1.00  0.00     0.047 C 
BRANCH   6   7
ATOM      7  C   UNL     1       6.465   0.126  -0.773  1.00  0.00    -0.047 A 
ATOM      8  C   UNL     1       6.619  -0.919   0.126  1.00  0.00     0.004 A 
ATOM      9  C   UNL     1       5.786   1.241  -0.316  1.00  0.00     0.004 A 
ATOM     10  C   UNL     1       6.122  -0.859   1.408  1.00  0.00     0.000 A 
ATOM     11  C   UNL     1       5.290   1.300   0.969  1.00  0.00     0.000 A 
ATOM     12  C   UNL     1       5.445   0.258   1.854  1.00  0.00     0.000 A 
ENDBRANCH   6   7
ENDBRANCH   1   6
TORSDOF 4
ENDMDL
MODEL 3
REMARK VINA RESULT:      -7.0      0.611      1.157
REMARK SMILES O=C(O)CCc1ccccc1
REMARK SMILES IDX 4 1 2 2 1 3 3 4 5 6 6 7 7 8 11 9 8 10 10 11 9 12
REMARK H PARENT 3 5
REMARK Flexibility Score: inf
ROOT
ATOM      1  C   UNL     1       8.298  -0.903  -1.889  1.00  0.00     0.127 C 
ENDROOT
BRANCH   1   2
ATOM      2  C   UNL     1       8.360  -2.010  -2.860  1.00  0.00     0.303 C 
ATOM      3  O   UNL     1       7.286  -2.463  -3.341  1.00  0.00    -0.252 OA
BRANCH   2   4
ATOM      4  O   UNL     1       9.575  -2.578  -3.270  1.00  0.00    -0.481 OA
ATOM      5  H   UNL     1      10.405  -2.389  -2.725  1.00  0.00     0.296 HD
ENDBRANCH   2   4
ENDBRANCH   1   2
BRANCH   1   6
ATOM      6  C   UNL     1       7.721  -1.342  -0.555  1.00  0.00     0.047 C 
BRANCH   6   7
ATOM      7  C   UNL     1       6.764  -0.332  -0.031  1.00  0.00    -0.047 A 
ATOM      8  C   UNL     1       6.395   0.761  -0.803  1.00  0.00     0.004 A 
ATOM      9  C   UNL     1       6.205  -0.414   1.231  1.00  0.00     0.004 A 
ATOM     10  C   UNL     1       5.520   1.718  -0.343  1.00  0.00     0.000 A 
ATOM     11  C   UNL     1       5.329   0.546   1.691  1.00  0.00     0.000 A 
ATOM     12  C   UNL     1       4.969   1.627   0.919  1.00  0.00     0.000 A 
ENDBRANCH   6   7
ENDBRANCH   1   6
TORSDOF 4
ENDMDL
MODEL 4
REMARK VINA RESULT:      -6.8      3.319      5.169
REMARK SMILES O=C(O)CCc1ccccc1
REMARK SMILES IDX 4 1 2 2 1 3 3 4 5 6 6 7 7 8 11 9 8 10 10 11 9 12
REMARK H PARENT 3 5
REMARK Flexibility Score: inf
ROOT
ATOM      1  C   UNL     1       5.013   1.784   0.729  1.00  0.00     0.127 C 
ENDROOT
BRANCH   1   2
ATOM      2  C   UNL     1       4.477   1.111   1.925  1.00  0.00     0.303 C 
ATOM      3  O   UNL     1       5.156   0.200   2.472  1.00  0.00    -0.252 OA
BRANCH   2   4
ATOM      4  O   UNL     1       3.234   1.449   2.480  1.00  0.00    -0.481 OA
ATOM      5  H   UNL     1       3.209   1.826   3.417  1.00  0.00     0.296 HD
ENDBRANCH   2   4
ENDBRANCH   1   2
BRANCH   1   6
ATOM      6  C   UNL     1       6.526   1.904   0.768  1.00  0.00     0.047 C 
BRANCH   6   7
ATOM      7  C   UNL     1       7.151   1.113  -0.324  1.00  0.00    -0.047 A 
ATOM      8  C   UNL     1       6.401   0.208  -1.061  1.00  0.00     0.004 A 
ATOM      9  C   UNL     1       8.489   1.222  -0.656  1.00  0.00     0.004 A 
ATOM     10  C   UNL     1       6.952  -0.547  -2.072  1.00  0.00     0.000 A 
ATOM     11  C   UNL     1       9.040   0.466  -1.668  1.00  0.00     0.000 A 
ATOM     12  C   UNL     1       8.289  -0.431  -2.394  1.00  0.00     0.000 A 
ENDBRANCH   6   7
ENDBRANCH   1   6
TORSDOF 4
ENDMDL
MODEL 5
REMARK VINA RESULT:      -6.6      1.940      2.611
REMARK SMILES O=C(O)CCc1ccccc1
REMARK SMILES IDX 4 1 2 2 1 3 3 4 5 6 6 7 7 8 11 9 8 10 10 11 9 12
REMARK H PARENT 3 5
REMARK Flexibility Score: inf
ROOT
ATOM      1  C   UNL     1       8.279   0.163  -2.187  1.00  0.00     0.127 C 
ENDROOT
BRANCH   1   2
ATOM      2  C   UNL     1       9.388   0.351  -1.235  1.00  0.00     0.303 C 
ATOM      3  O   UNL     1       9.460  -0.397  -0.223  1.00  0.00    -0.252 OA
BRANCH   2   4
ATOM      4  O   UNL     1      10.371   1.335  -1.417  1.00  0.00    -0.481 OA
ATOM      5  H   UNL     1      10.634   1.908  -0.627  1.00  0.00     0.296 HD
ENDBRANCH   2   4
ENDBRANCH   1   2
BRANCH   1   6
ATOM      6  C   UNL     1       7.120  -0.602  -1.573  1.00  0.00     0.047 C 
BRANCH   6   7
ATOM      7  C   UNL     1       6.349   0.259  -0.638  1.00  0.00    -0.047 A 
ATOM      8  C   UNL     1       6.107  -0.151   0.665  1.00  0.00     0.004 A 
ATOM      9  C   UNL     1       5.830   1.486  -1.007  1.00  0.00     0.004 A 
ATOM     10  C   UNL     1       5.388   0.618   1.551  1.00  0.00     0.000 A 
ATOM     11  C   UNL     1       5.109   2.255  -0.118  1.00  0.00     0.000 A 
ATOM     12  C   UNL     1       4.873   1.841   1.173  1.00  0.00     0.000 A 
ENDBRANCH   6   7
ENDBRANCH   1   6
TORSDOF 4
ENDMDL
