@<TRIPOS>MOLECULE
/home/cewinharhar/GITHUB/reincatalyze/data/processed/docking_pred/2023-Apr-25-2248_maxeplen10_maxtrainstep1000_exh16_gamma099_lrac3e-4_lrcr1e-3/b0dbf451e4e891e0fb60bf6ca530f921e690d9da_ligand_2.pdbqt
 12 12 0 0 0
SMALL
GASTEIGER

@<TRIPOS>ATOM
      1  C          8.3770   -0.6260   -2.1560 C.3     1  UNL1        0.1270
      2  C          8.3890   -1.8990   -2.8980 C.2     1  UNL1        0.3030
      3  O          7.2930   -2.4150   -3.2480 O.2     1  UNL1       -0.2520
      4  O          9.5810   -2.5590   -3.2300 O.3     1  UNL1       -0.4810
      5  H          9.8940   -2.5370   -4.1910 H       1  UNL1        0.2960
      6  C          7.0040    0.0230   -2.1550 C.3     1  UNL1        0.0470
      7  C          6.4650    0.1260   -0.7730 C.2     1  UNL1       -0.0470
      8  C          6.6190   -0.9190    0.1260 C.2     1  UNL1        0.0040
      9  C          5.7860    1.2410   -0.3160 C.2     1  UNL1        0.0040
     10  C          6.1220   -0.8590    1.4080 C.2     1  UNL1        0.0000
     11  C          5.2900    1.3000    0.9690 C.2     1  UNL1        0.0000
     12  C          5.4450    0.2580    1.8540 C.2     1  UNL1        0.0000
@<TRIPOS>BOND
     1     5     4    1
     2     3     2    2
     3     4     2    1
     4     2     1    1
     5     1     6    1
     6     6     7    1
     7     7     9    2
     8     7     8    1
     9     9    11    1
    10     8    10    2
    11    11    12    2
    12    10    12    1
