@<TRIPOS>MOLECULE
/home/cewinharhar/GITHUB/reincatalyze/data/processed/docking_pred/2023-Apr-25-2248_maxeplen10_maxtrainstep1000_exh16_gamma099_lrac3e-4_lrcr1e-3/b0dbf451e4e891e0fb60bf6ca530f921e690d9da_ligand_2.pdbqt
 12 12 0 0 0
SMALL
GASTEIGER

@<TRIPOS>ATOM
      1  C          8.2980   -0.9030   -1.8890 C.3     1  UNL1        0.1270
      2  C          8.3600   -2.0100   -2.8600 C.2     1  UNL1        0.3030
      3  O          7.2860   -2.4630   -3.3410 O.2     1  UNL1       -0.2520
      4  O          9.5750   -2.5780   -3.2700 O.3     1  UNL1       -0.4810
      5  H         10.4050   -2.3890   -2.7250 H       1  UNL1        0.2960
      6  C          7.7210   -1.3420   -0.5550 C.3     1  UNL1        0.0470
      7  C          6.7640   -0.3320   -0.0310 C.2     1  UNL1       -0.0470
      8  C          6.3950    0.7610   -0.8030 C.2     1  UNL1        0.0040
      9  C          6.2050   -0.4140    1.2310 C.2     1  UNL1        0.0040
     10  C          5.5200    1.7180   -0.3430 C.2     1  UNL1        0.0000
     11  C          5.3290    0.5460    1.6910 C.2     1  UNL1        0.0000
     12  C          4.9690    1.6270    0.9190 C.2     1  UNL1        0.0000
@<TRIPOS>BOND
     1     3     2    2
     2     4     2    1
     3     4     5    1
     4     2     1    1
     5     1     6    1
     6     8    10    1
     7     8     7    2
     8     6     7    1
     9    10    12    2
    10     7     9    1
    11    12    11    1
    12     9    11    2
