@<TRIPOS>MOLECULE
/home/cewinharhar/GITHUB/reincatalyze/data/processed/docking_pred/2023-Apr-25-2248_maxeplen10_maxtrainstep1000_exh16_gamma099_lrac3e-4_lrcr1e-3/b0dbf451e4e891e0fb60bf6ca530f921e690d9da_ligand_2.pdbqt
 12 12 0 0 0
SMALL
GASTEIGER

@<TRIPOS>ATOM
      1  C          8.2790    0.1630   -2.1870 C.3     1  UNL1        0.1270
      2  C          9.3880    0.3510   -1.2350 C.2     1  UNL1        0.3030
      3  O          9.4600   -0.3970   -0.2230 O.2     1  UNL1       -0.2520
      4  O         10.3710    1.3350   -1.4170 O.3     1  UNL1       -0.4810
      5  H         10.6340    1.9080   -0.6270 H       1  UNL1        0.2960
      6  C          7.1200   -0.6020   -1.5730 C.3     1  UNL1        0.0470
      7  C          6.3490    0.2590   -0.6380 C.2     1  UNL1       -0.0470
      8  C          6.1070   -0.1510    0.6650 C.2     1  UNL1        0.0040
      9  C          5.8300    1.4860   -1.0070 C.2     1  UNL1        0.0040
     10  C          5.3880    0.6180    1.5510 C.2     1  UNL1        0.0000
     11  C          5.1090    2.2550   -0.1180 C.2     1  UNL1        0.0000
     12  C          4.8730    1.8410    1.1730 C.2     1  UNL1        0.0000
@<TRIPOS>BOND
     1     1     6    1
     2     1     2    1
     3     6     7    1
     4     4     2    1
     5     4     5    1
     6     2     3    2
     7     9     7    2
     8     9    11    1
     9     7     8    1
    10    11    12    2
    11     8    10    2
    12    12    10    1
