@<TRIPOS>MOLECULE
/home/cewinharhar/GITHUB/reincatalyze/data/processed/docking_pred/2023-Apr-25-2248_maxeplen10_maxtrainstep1000_exh16_gamma099_lrac3e-4_lrcr1e-3/b1cc709a4c09585943c6b669d8b61c6b26bf0288_ligand_2.pdbqt
 12 12 0 0 0
SMALL
GASTEIGER

@<TRIPOS>ATOM
      1  C          5.0280    1.7960    0.7470 C.3     1  UNL1        0.1270
      2  C          4.4740    1.1120    1.9290 C.2     1  UNL1        0.3030
      3  O          5.1400    0.1860    2.4680 O.2     1  UNL1       -0.2520
      4  O          3.2310    1.4560    2.4770 O.3     1  UNL1       -0.4810
      5  H          3.0920    2.4020    2.8050 H       1  UNL1        0.2960
      6  C          6.5430    1.8860    0.7930 C.3     1  UNL1        0.0470
      7  C          7.1570    1.1010   -0.3100 C.2     1  UNL1       -0.0470
      8  C          6.4040    0.1850   -1.0300 C.2     1  UNL1        0.0040
      9  C          8.4870    1.2260   -0.6680 C.2     1  UNL1        0.0040
     10  C          6.9450   -0.5650   -2.0500 C.2     1  UNL1        0.0000
     11  C          9.0270    0.4750   -1.6890 C.2     1  UNL1        0.0000
     12  C          8.2740   -0.4330   -2.3990 C.2     1  UNL1        0.0000
@<TRIPOS>BOND
     1    12    10    2
     2    12    11    1
     3    10     8    1
     4    11     9    2
     5     8     7    2
     6     9     7    1
     7     7     6    1
     8     1     6    1
     9     1     2    1
    10     2     3    2
    11     2     4    1
    12     4     5    1
