@<TRIPOS>MOLECULE
/home/cewinharhar/GITHUB/reincatalyze/data/processed/docking_pred/2023-Apr-25-2248_maxeplen10_maxtrainstep1000_exh16_gamma099_lrac3e-4_lrcr1e-3/b1cc709a4c09585943c6b669d8b61c6b26bf0288_ligand_2.pdbqt
 12 12 0 0 0
SMALL
GASTEIGER

@<TRIPOS>ATOM
      1  C          8.4050   -0.6310   -2.1580 C.3     1  UNL1        0.1270
      2  C          8.4330   -1.9030   -2.9010 C.2     1  UNL1        0.3030
      3  O          9.5360   -2.4920   -3.0660 O.2     1  UNL1       -0.2520
      4  O          7.2720   -2.4850   -3.4320 O.3     1  UNL1       -0.4810
      5  H          6.6590   -1.9130   -3.9950 H       1  UNL1        0.2960
      6  C          7.0180   -0.0130   -2.1310 C.3     1  UNL1        0.0470
      7  C          6.4850    0.0390   -0.7450 C.2     1  UNL1       -0.0470
      8  C          5.8340    1.1730   -0.2790 C.2     1  UNL1        0.0040
      9  C          6.6120   -1.0110    0.1460 C.2     1  UNL1        0.0040
     10  C          5.3390    1.2560    1.0020 C.2     1  UNL1        0.0000
     11  C          6.1150   -0.9270    1.4290 C.2     1  UNL1        0.0000
     12  C          5.4720    0.2020    1.8840 C.2     1  UNL1        0.0000
@<TRIPOS>BOND
     1     5     4    1
     2     4     2    1
     3     3     2    2
     4     2     1    1
     5     1     6    1
     6     6     7    1
     7     7     8    2
     8     7     9    1
     9     8    10    1
    10     9    11    2
    11    10    12    2
    12    11    12    1
