@<TRIPOS>MOLECULE
/home/cewinharhar/GITHUB/reincatalyze/data/processed/docking_pred/2023-Apr-25-2248_maxeplen10_maxtrainstep1000_exh16_gamma099_lrac3e-4_lrcr1e-3/b1cc709a4c09585943c6b669d8b61c6b26bf0288_ligand_2.pdbqt
 12 12 0 0 0
SMALL
GASTEIGER

@<TRIPOS>ATOM
      1  C          8.2970   -1.7250    1.2290 C.3     1  UNL1        0.1270
      2  C          8.7060   -2.9330    0.4910 C.2     1  UNL1        0.3030
      3  O          9.4590   -3.7720    1.0570 O.2     1  UNL1       -0.2520
      4  O          8.2840   -3.1850   -0.8230 O.3     1  UNL1       -0.4810
      5  H          7.9140   -2.4180   -1.3670 H       1  UNL1        0.2960
      6  C          6.7940   -1.6590    1.4340 C.3     1  UNL1        0.0470
      7  C          6.2390   -0.3900    0.8950 C.2     1  UNL1       -0.0470
      8  C          6.4990   -0.0010   -0.4110 C.2     1  UNL1        0.0040
      9  C          5.4560    0.4650    1.6510 C.2     1  UNL1        0.0040
     10  C          6.0090    1.1730   -0.9350 C.2     1  UNL1        0.0000
     11  C          4.9660    1.6400    1.1240 C.2     1  UNL1        0.0000
     12  C          5.2290    2.0190   -0.1730 C.2     1  UNL1        0.0000
@<TRIPOS>BOND
     1     5     4    1
     2    10     8    1
     3    10    12    2
     4     4     2    1
     5     8     7    2
     6    12    11    1
     7     2     3    2
     8     2     1    1
     9     7     6    1
    10     7     9    1
    11    11     9    2
    12     1     6    1
