MODEL 1
REMARK VINA RESULT:      -7.3      0.000      0.000
REMARK SMILES O=C(O)CCc1ccccc1
REMARK SMILES IDX 4 1 2 2 1 3 3 4 5 6 6 7 7 8 11 9 8 10 10 11 9 12
REMARK H PARENT 3 5
REMARK Flexibility Score: inf
ROOT
ATOM      1  C   UNL     1       8.405  -0.631  -2.158  1.00  0.00     0.127 C 
ENDROOT
BRANCH   1   2
ATOM      2  C   UNL     1       8.433  -1.903  -2.901  1.00  0.00     0.303 C 
ATOM      3  O   UNL     1       9.536  -2.492  -3.066  1.00  0.00    -0.252 OA
BRANCH   2   4
ATOM      4  O   UNL     1       7.272  -2.485  -3.432  1.00  0.00    -0.481 OA
ATOM      5  H   UNL     1       6.659  -1.913  -3.995  1.00  0.00     0.296 HD
ENDBRANCH   2   4
ENDBRANCH   1   2
BRANCH   1   6
ATOM      6  C   UNL     1       7.018  -0.013  -2.131  1.00  0.00     0.047 C 
BRANCH   6   7
ATOM      7  C   UNL     1       6.485   0.039  -0.745  1.00  0.00    -0.047 A 
ATOM      8  C   UNL     1       5.834   1.173  -0.279  1.00  0.00     0.004 A 
ATOM      9  C   UNL     1       6.612  -1.011   0.146  1.00  0.00     0.004 A 
ATOM     10  C   UNL     1       5.339   1.256   1.002  1.00  0.00     0.000 A 
ATOM     11  C   UNL     1       6.115  -0.927   1.429  1.00  0.00     0.000 A 
ATOM     12  C   UNL     1       5.472   0.202   1.884  1.00  0.00     0.000 A 
ENDBRANCH   6   7
ENDBRANCH   1   6
TORSDOF 4
ENDMDL
MODEL 2
REMARK VINA RESULT:      -7.3      0.042      1.421
REMARK SMILES O=C(O)CCc1ccccc1
REMARK SMILES IDX 4 1 2 2 1 3 3 4 5 6 6 7 7 8 11 9 8 10 10 11 9 12
REMARK H PARENT 3 5
REMARK Flexibility Score: inf
ROOT
ATOM      1  C   UNL     1       8.411  -0.617  -2.175  1.00  0.00     0.127 C 
ENDROOT
BRANCH   1   2
ATOM      2  C   UNL     1       8.440  -1.889  -2.918  1.00  0.00     0.303 C 
ATOM      3  O   UNL     1       9.545  -2.469  -3.096  1.00  0.00    -0.252 OA
BRANCH   2   4
ATOM      4  O   UNL     1       7.278  -2.480  -3.434  1.00  0.00    -0.481 OA
ATOM      5  H   UNL     1       6.430  -1.929  -3.470  1.00  0.00     0.296 HD
ENDBRANCH   2   4
ENDBRANCH   1   2
BRANCH   1   6
ATOM      6  C   UNL     1       7.026   0.003  -2.152  1.00  0.00     0.047 C 
BRANCH   6   7
ATOM      7  C   UNL     1       6.499   0.080  -0.764  1.00  0.00    -0.047 A 
ATOM      8  C   UNL     1       6.615  -1.002   0.097  1.00  0.00     0.004 A 
ATOM      9  C   UNL     1       5.868   1.204  -0.264  1.00  0.00     0.004 A 
ATOM     10  C   UNL     1       6.128  -0.966   1.384  1.00  0.00     0.000 A 
ATOM     11  C   UNL     1       5.381   1.238   1.025  1.00  0.00     0.000 A 
ATOM     12  C   UNL     1       5.499   0.160   1.873  1.00  0.00     0.000 A 
ENDBRANCH   6   7
ENDBRANCH   1   6
TORSDOF 4
ENDMDL
MODEL 3
REMARK VINA RESULT:      -6.8      3.395      5.089
REMARK SMILES O=C(O)CCc1ccccc1
REMARK SMILES IDX 4 1 2 2 1 3 3 4 5 6 6 7 7 8 11 9 8 10 10 11 9 12
REMARK H PARENT 3 5
REMARK Flexibility Score: inf
ROOT
ATOM      1  C   UNL     1       5.028   1.796   0.747  1.00  0.00     0.127 C 
ENDROOT
BRANCH   1   2
ATOM      2  C   UNL     1       4.474   1.112   1.929  1.00  0.00     0.303 C 
ATOM      3  O   UNL     1       5.140   0.186   2.468  1.00  0.00    -0.252 OA
BRANCH   2   4
ATOM      4  O   UNL     1       3.231   1.456   2.477  1.00  0.00    -0.481 OA
ATOM      5  H   UNL     1       3.092   2.402   2.805  1.00  0.00     0.296 HD
ENDBRANCH   2   4
ENDBRANCH   1   2
BRANCH   1   6
ATOM      6  C   UNL     1       6.543   1.886   0.793  1.00  0.00     0.047 C 
BRANCH   6   7
ATOM      7  C   UNL     1       7.157   1.101  -0.310  1.00  0.00    -0.047 A 
ATOM      8  C   UNL     1       6.404   0.185  -1.030  1.00  0.00     0.004 A 
ATOM      9  C   UNL     1       8.487   1.226  -0.668  1.00  0.00     0.004 A 
ATOM     10  C   UNL     1       6.945  -0.565  -2.050  1.00  0.00     0.000 A 
ATOM     11  C   UNL     1       9.027   0.475  -1.689  1.00  0.00     0.000 A 
ATOM     12  C   UNL     1       8.274  -0.433  -2.399  1.00  0.00     0.000 A 
ENDBRANCH   6   7
ENDBRANCH   1   6
TORSDOF 4
ENDMDL
MODEL 4
REMARK VINA RESULT:      -6.6      1.957      2.986
REMARK SMILES O=C(O)CCc1ccccc1
REMARK SMILES IDX 4 1 2 2 1 3 3 4 5 6 6 7 7 8 11 9 8 10 10 11 9 12
REMARK H PARENT 3 5
REMARK Flexibility Score: inf
ROOT
ATOM      1  C   UNL     1       8.297  -1.725   1.229  1.00  0.00     0.127 C 
ENDROOT
BRANCH   1   2
ATOM      2  C   UNL     1       8.706  -2.933   0.491  1.00  0.00     0.303 C 
ATOM      3  O   UNL     1       9.459  -3.772   1.057  1.00  0.00    -0.252 OA
BRANCH   2   4
ATOM      4  O   UNL     1       8.284  -3.185  -0.823  1.00  0.00    -0.481 OA
ATOM      5  H   UNL     1       7.914  -2.418  -1.367  1.00  0.00     0.296 HD
ENDBRANCH   2   4
ENDBRANCH   1   2
BRANCH   1   6
ATOM      6  C   UNL     1       6.794  -1.659   1.434  1.00  0.00     0.047 C 
BRANCH   6   7
ATOM      7  C   UNL     1       6.239  -0.390   0.895  1.00  0.00    -0.047 A 
ATOM      8  C   UNL     1       6.499  -0.001  -0.411  1.00  0.00     0.004 A 
ATOM      9  C   UNL     1       5.456   0.465   1.651  1.00  0.00     0.004 A 
ATOM     10  C   UNL     1       6.009   1.173  -0.935  1.00  0.00     0.000 A 
ATOM     11  C   UNL     1       4.966   1.640   1.124  1.00  0.00     0.000 A 
ATOM     12  C   UNL     1       5.229   2.019  -0.173  1.00  0.00     0.000 A 
ENDBRANCH   6   7
ENDBRANCH   1   6
TORSDOF 4
ENDMDL
MODEL 5
REMARK VINA RESULT:      -6.6      2.068      2.401
REMARK SMILES O=C(O)CCc1ccccc1
REMARK SMILES IDX 4 1 2 2 1 3 3 4 5 6 6 7 7 8 11 9 8 10 10 11 9 12
REMARK H PARENT 3 5
REMARK Flexibility Score: inf
ROOT
ATOM      1  C   UNL     1       8.520   0.658  -1.663  1.00  0.00     0.127 C 
ENDROOT
BRANCH   1   2
ATOM      2  C   UNL     1       9.672   0.282  -0.826  1.00  0.00     0.303 C 
ATOM      3  O   UNL     1       9.496  -0.514   0.136  1.00  0.00    -0.252 OA
BRANCH   2   4
ATOM      4  O   UNL     1      10.962   0.779  -1.062  1.00  0.00    -0.481 OA
ATOM      5  H   UNL     1      11.534   1.036  -0.269  1.00  0.00     0.296 HD
ENDBRANCH   2   4
ENDBRANCH   1   2
BRANCH   1   6
ATOM      6  C   UNL     1       7.328  -0.255  -1.443  1.00  0.00     0.047 C 
BRANCH   6   7
ATOM      7  C   UNL     1       6.434   0.281  -0.383  1.00  0.00    -0.047 A 
ATOM      8  C   UNL     1       5.802   1.505  -0.543  1.00  0.00     0.004 A 
ATOM      9  C   UNL     1       6.194  -0.389   0.803  1.00  0.00     0.004 A 
ATOM     10  C   UNL     1       4.977   2.033   0.424  1.00  0.00     0.000 A 
ATOM     11  C   UNL     1       5.368   0.141   1.771  1.00  0.00     0.000 A 
ATOM     12  C   UNL     1       4.745   1.357   1.605  1.00  0.00     0.000 A 
ENDBRANCH   6   7
ENDBRANCH   1   6
TORSDOF 4
ENDMDL
