@<TRIPOS>MOLECULE
/home/cewinharhar/GITHUB/reincatalyze/data/processed/docking_pred/2023-Apr-25-2248_maxeplen10_maxtrainstep1000_exh16_gamma099_lrac3e-4_lrcr1e-3/b1cc709a4c09585943c6b669d8b61c6b26bf0288_ligand_2.pdbqt
 12 12 0 0 0
SMALL
GASTEIGER

@<TRIPOS>ATOM
      1  C          8.4110   -0.6170   -2.1750 C.3     1  UNL1        0.1270
      2  C          8.4400   -1.8890   -2.9180 C.2     1  UNL1        0.3030
      3  O          9.5450   -2.4690   -3.0960 O.2     1  UNL1       -0.2520
      4  O          7.2780   -2.4800   -3.4340 O.3     1  UNL1       -0.4810
      5  H          6.4300   -1.9290   -3.4700 H       1  UNL1        0.2960
      6  C          7.0260    0.0030   -2.1520 C.3     1  UNL1        0.0470
      7  C          6.4990    0.0800   -0.7640 C.2     1  UNL1       -0.0470
      8  C          6.6150   -1.0020    0.0970 C.2     1  UNL1        0.0040
      9  C          5.8680    1.2040   -0.2640 C.2     1  UNL1        0.0040
     10  C          6.1280   -0.9660    1.3840 C.2     1  UNL1        0.0000
     11  C          5.3810    1.2380    1.0250 C.2     1  UNL1        0.0000
     12  C          5.4990    0.1600    1.8730 C.2     1  UNL1        0.0000
@<TRIPOS>BOND
     1     5     4    1
     2     4     2    1
     3     3     2    2
     4     2     1    1
     5     1     6    1
     6     6     7    1
     7     7     9    2
     8     7     8    1
     9     9    11    1
    10     8    10    2
    11    11    12    2
    12    10    12    1
