@<TRIPOS>MOLECULE
/home/cewinharhar/GITHUB/reincatalyze/data/processed/docking_pred/2023-Apr-25-2248_maxeplen10_maxtrainstep1000_exh16_gamma099_lrac3e-4_lrcr1e-3/b1cc709a4c09585943c6b669d8b61c6b26bf0288_ligand_2.pdbqt
 12 12 0 0 0
SMALL
GASTEIGER

@<TRIPOS>ATOM
      1  C          8.5200    0.6580   -1.6630 C.3     1  UNL1        0.1270
      2  C          9.6720    0.2820   -0.8260 C.2     1  UNL1        0.3030
      3  O          9.4960   -0.5140    0.1360 O.2     1  UNL1       -0.2520
      4  O         10.9620    0.7790   -1.0620 O.3     1  UNL1       -0.4810
      5  H         11.5340    1.0360   -0.2690 H       1  UNL1        0.2960
      6  C          7.3280   -0.2550   -1.4430 C.3     1  UNL1        0.0470
      7  C          6.4340    0.2810   -0.3830 C.2     1  UNL1       -0.0470
      8  C          5.8020    1.5050   -0.5430 C.2     1  UNL1        0.0040
      9  C          6.1940   -0.3890    0.8030 C.2     1  UNL1        0.0040
     10  C          4.9770    2.0330    0.4240 C.2     1  UNL1        0.0000
     11  C          5.3680    0.1410    1.7710 C.2     1  UNL1        0.0000
     12  C          4.7450    1.3570    1.6050 C.2     1  UNL1        0.0000
@<TRIPOS>BOND
     1     1     6    1
     2     1     2    1
     3     6     7    1
     4     4     2    1
     5     4     5    1
     6     2     3    2
     7     8     7    2
     8     8    10    1
     9     7     9    1
    10    10    12    2
    11     9    11    2
    12    12    11    1
