@<TRIPOS>MOLECULE
/home/cewinharhar/GITHUB/reincatalyze/data/processed/docking_pred/2023-Apr-25-2248_maxeplen10_maxtrainstep1000_exh16_gamma099_lrac3e-4_lrcr1e-3/b25c452ec0c0b8d96fec3e0f7bbac0cc4967bb63_ligand_2.pdbqt
 12 12 0 0 0
SMALL
GASTEIGER

@<TRIPOS>ATOM
      1  C          5.5720    2.8930    0.1560 C.3     1  UNL1        0.1270
      2  C          6.2420    4.0240    0.8220 C.2     1  UNL1        0.3030
      3  O          6.9960    4.7740    0.1440 O.2     1  UNL1       -0.2520
      4  O          6.0700    4.2970    2.1860 O.3     1  UNL1       -0.4810
      5  H          6.8710    4.6020    2.7230 H       1  UNL1        0.2960
      6  C          4.7870    2.0360    1.1320 C.3     1  UNL1        0.0470
      7  C          5.5550    0.8230    1.5140 C.2     1  UNL1       -0.0470
      8  C          5.0240   -0.4430    1.3160 C.2     1  UNL1        0.0040
      9  C          6.8130    0.8830    2.0870 C.2     1  UNL1        0.0040
     10  C          5.7060   -1.5850    1.6680 C.2     1  UNL1        0.0000
     11  C          7.4950   -0.2610    2.4400 C.2     1  UNL1        0.0000
     12  C          6.9610   -1.5140    2.2410 C.2     1  UNL1        0.0000
@<TRIPOS>BOND
     1     3     2    2
     2     1     2    1
     3     1     6    1
     4     2     4    1
     5     6     7    1
     6     8     7    2
     7     8    10    1
     8     7     9    1
     9    10    12    2
    10     9    11    2
    11     4     5    1
    12    12    11    1
