@<TRIPOS>MOLECULE
/home/cewinharhar/GITHUB/reincatalyze/data/processed/docking_pred/2023-Apr-25-2248_maxeplen10_maxtrainstep1000_exh16_gamma099_lrac3e-4_lrcr1e-3/b25c452ec0c0b8d96fec3e0f7bbac0cc4967bb63_ligand_2.pdbqt
 12 12 0 0 0
SMALL
GASTEIGER

@<TRIPOS>ATOM
      1  C          6.3970   -0.5630    2.7430 C.3     1  UNL1        0.1270
      2  C          7.1580   -1.5050    1.9030 C.2     1  UNL1        0.3030
      3  O          8.3190   -1.1890    1.5260 O.2     1  UNL1       -0.2520
      4  O          6.6350   -2.7450    1.5090 O.3     1  UNL1       -0.4810
      5  H          6.6400   -3.5050    2.1750 H       1  UNL1        0.2960
      6  C          5.1970    0.0150    2.0150 C.3     1  UNL1        0.0470
      7  C          5.5290    1.3250    1.3960 C.2     1  UNL1       -0.0470
      8  C          4.8590    1.7620    0.2620 C.2     1  UNL1        0.0040
      9  C          6.5090    2.1620    1.8960 C.2     1  UNL1        0.0040
     10  C          5.1500    2.9640   -0.3410 C.2     1  UNL1        0.0000
     11  C          6.8000    3.3660    1.2910 C.2     1  UNL1        0.0000
     12  C          6.1320    3.7920    0.1660 C.2     1  UNL1        0.0000
@<TRIPOS>BOND
     1    10    12    2
     2    10     8    1
     3    12    11    1
     4     8     7    2
     5    11     9    2
     6     7     9    1
     7     7     6    1
     8     4     2    1
     9     4     5    1
    10     3     2    2
    11     2     1    1
    12     6     1    1
