@<TRIPOS>MOLECULE
/home/cewinharhar/GITHUB/reincatalyze/data/processed/docking_pred/2023-Apr-25-2248_maxeplen10_maxtrainstep1000_exh16_gamma099_lrac3e-4_lrcr1e-3/b25c452ec0c0b8d96fec3e0f7bbac0cc4967bb63_ligand_2.pdbqt
 12 12 0 0 0
SMALL
GASTEIGER

@<TRIPOS>ATOM
      1  C          8.3760   -5.6310   11.6980 C.3     1  UNL1        0.1270
      2  C          7.6770   -4.3650   11.4170 C.2     1  UNL1        0.3030
      3  O          7.1490   -3.7310   12.3710 O.2     1  UNL1       -0.2520
      4  O          7.5770   -3.8380   10.1210 O.3     1  UNL1       -0.4810
      5  H          7.0330   -2.9970    9.9820 H       1  UNL1        0.2960
      6  C          8.7190   -6.3920   10.4300 C.3     1  UNL1        0.0470
      7  C         10.0630   -7.0180   10.5310 C.2     1  UNL1       -0.0470
      8  C         10.2150   -8.3910   10.4070 C.2     1  UNL1        0.0040
      9  C         11.2140   -6.2860   10.7600 C.2     1  UNL1        0.0040
     10  C         11.4440   -9.0020   10.5060 C.2     1  UNL1        0.0000
     11  C         12.4450   -6.9000   10.8590 C.2     1  UNL1        0.0000
     12  C         12.5870   -8.2630   10.7350 C.2     1  UNL1        0.0000
@<TRIPOS>BOND
     1     5     4    1
     2     4     2    1
     3     8    10    1
     4     8     7    2
     5     6     7    1
     6     6     1    1
     7    10    12    2
     8     7     9    1
     9    12    11    1
    10     9    11    2
    11     2     1    1
    12     2     3    2
