@<TRIPOS>MOLECULE
/home/cewinharhar/GITHUB/reincatalyze/data/processed/docking_pred/2023-Apr-25-2248_maxeplen10_maxtrainstep1000_exh16_gamma099_lrac3e-4_lrcr1e-3/b25c452ec0c0b8d96fec3e0f7bbac0cc4967bb63_ligand_2.pdbqt
 12 12 0 0 0
SMALL
GASTEIGER

@<TRIPOS>ATOM
      1  C         12.1780   -8.0860   10.4740 C.3     1  UNL1        0.1270
      2  C         13.3360   -8.3250    9.5960 C.2     1  UNL1        0.3030
      3  O         14.1200   -9.2770    9.8610 O.2     1  UNL1       -0.2520
      4  O         13.5980   -7.5310    8.4700 O.3     1  UNL1       -0.4810
      5  H         14.3400   -7.8110    7.8420 H       1  UNL1        0.2960
      6  C         12.0990   -6.6430   10.9400 C.3     1  UNL1        0.0470
      7  C         10.6860   -6.2080   11.0910 C.2     1  UNL1       -0.0470
      8  C          9.6890   -6.7530   10.2950 C.2     1  UNL1        0.0040
      9  C         10.2920   -5.2500   12.0070 C.2     1  UNL1        0.0040
     10  C          8.3730   -6.3640   10.4040 C.2     1  UNL1        0.0000
     11  C          8.9740   -4.8620   12.1150 C.2     1  UNL1        0.0000
     12  C          7.9900   -5.4060   11.3200 C.2     1  UNL1        0.0000
@<TRIPOS>BOND
     1     5     4    1
     2     4     2    1
     3     2     3    2
     4     2     1    1
     5     8    10    1
     6     8     7    2
     7    10    12    2
     8     1     6    1
     9     6     7    1
    10     7     9    1
    11    12    11    1
    12     9    11    2
