@<TRIPOS>MOLECULE
/home/cewinharhar/GITHUB/reincatalyze/data/processed/docking_pred/2023-Apr-25-2248_maxeplen10_maxtrainstep1000_exh16_gamma099_lrac3e-4_lrcr1e-3/b393d0f0af23d36e99ef7bf88514b4beffd0378d_ligand_2.pdbqt
 12 12 0 0 0
SMALL
GASTEIGER

@<TRIPOS>ATOM
      1  C          8.2810   -1.7370    1.1850 C.3     1  UNL1        0.1270
      2  C          8.6890   -2.9590    0.4700 C.2     1  UNL1        0.3030
      3  O          9.4340   -3.7910    1.0560 O.2     1  UNL1       -0.2520
      4  O          8.2770   -3.2310   -0.8420 O.3     1  UNL1       -0.4810
      5  H          7.3910   -3.6960   -0.9840 H       1  UNL1        0.2960
      6  C          6.7740   -1.6450    1.3500 C.3     1  UNL1        0.0470
      7  C          6.2550   -0.3660    0.7980 C.2     1  UNL1       -0.0470
      8  C          5.4740    0.4760    1.5770 C.2     1  UNL1        0.0040
      9  C          6.5050    0.0450   -0.4980 C.2     1  UNL1        0.0040
     10  C          4.9700    1.6600    1.0920 C.2     1  UNL1        0.0000
     11  C          5.9990    1.2330   -0.9830 C.2     1  UNL1        0.0000
     12  C          5.2240    2.0620   -0.2040 C.2     1  UNL1        0.0000
@<TRIPOS>BOND
     1     5     4    1
     2    11     9    1
     3    11    12    2
     4     4     2    1
     5     9     7    2
     6    12    10    1
     7     2     3    2
     8     2     1    1
     9     7     6    1
    10     7     8    1
    11    10     8    2
    12     1     6    1
