@<TRIPOS>MOLECULE
/home/cewinharhar/GITHUB/reincatalyze/data/processed/docking_pred/2023-Apr-25-2248_maxeplen10_maxtrainstep1000_exh16_gamma099_lrac3e-4_lrcr1e-3/b393d0f0af23d36e99ef7bf88514b4beffd0378d_ligand_2.pdbqt
 12 12 0 0 0
SMALL
GASTEIGER

@<TRIPOS>ATOM
      1  C          8.4050   -0.6620   -2.1120 C.3     1  UNL1        0.1270
      2  C          8.4440   -1.9130   -2.8900 C.2     1  UNL1        0.3030
      3  O          9.5540   -2.4810   -3.0800 O.2     1  UNL1       -0.2520
      4  O          7.2880   -2.4970   -3.4260 O.3     1  UNL1       -0.4810
      5  H          7.3250   -3.4650   -3.7170 H       1  UNL1        0.2960
      6  C          7.0280   -0.0220   -2.1240 C.3     1  UNL1        0.0470
      7  C          6.4800    0.0860   -0.7470 C.2     1  UNL1       -0.0470
      8  C          6.6020   -0.9670    0.1490 C.2     1  UNL1        0.0040
      9  C          5.8210    1.2130   -0.2900 C.2     1  UNL1        0.0040
     10  C          6.0960   -0.9020    1.4270 C.2     1  UNL1        0.0000
     11  C          5.3150    1.2770    0.9900 C.2     1  UNL1        0.0000
     12  C          5.4390    0.2270    1.8720 C.2     1  UNL1        0.0000
@<TRIPOS>BOND
     1     5     4    1
     2     4     2    1
     3     3     2    2
     4     2     1    1
     5     6     1    1
     6     6     7    1
     7     7     9    2
     8     7     8    1
     9     9    11    1
    10     8    10    2
    11    11    12    2
    12    10    12    1
