@<TRIPOS>MOLECULE
/home/cewinharhar/GITHUB/reincatalyze/data/processed/docking_pred/2023-Apr-25-2248_maxeplen10_maxtrainstep1000_exh16_gamma099_lrac3e-4_lrcr1e-3/b393d0f0af23d36e99ef7bf88514b4beffd0378d_ligand_2.pdbqt
 12 12 0 0 0
SMALL
GASTEIGER

@<TRIPOS>ATOM
      1  C          4.9960    1.7820    0.7180 C.3     1  UNL1        0.1270
      2  C          4.4720    1.1170    1.9240 C.2     1  UNL1        0.3030
      3  O          5.1620    0.2160    2.4750 O.2     1  UNL1       -0.2520
      4  O          3.2310    1.4510    2.4840 O.3     1  UNL1       -0.4810
      5  H          2.4370    0.8550    2.2920 H       1  UNL1        0.2960
      6  C          6.5090    1.9050    0.7420 C.3     1  UNL1        0.0470
      7  C          7.1260    1.0920   -0.3380 C.2     1  UNL1       -0.0470
      8  C          8.4740    1.2220   -0.6390 C.2     1  UNL1        0.0040
      9  C          6.4070    0.1860   -1.0960 C.2     1  UNL1        0.0040
     10  C          9.0730    0.4920   -1.6400 C.2     1  UNL1        0.0000
     11  C          7.0090   -0.5450   -2.0980 C.2     1  UNL1        0.0000
     12  C          8.3470   -0.4100   -2.3920 C.2     1  UNL1        0.0000
@<TRIPOS>BOND
     1    12    11    2
     2    12    10    1
     3    11     9    1
     4    10     8    2
     5     9     7    2
     6     8     7    1
     7     7     6    1
     8     1     6    1
     9     1     2    1
    10     2     3    2
    11     2     4    1
    12     5     4    1
