@<TRIPOS>MOLECULE
/home/cewinharhar/GITHUB/reincatalyze/data/processed/docking_pred/2023-Apr-25-2248_maxeplen10_maxtrainstep1000_exh16_gamma099_lrac3e-4_lrcr1e-3/b393d0f0af23d36e99ef7bf88514b4beffd0378d_ligand_2.pdbqt
 12 12 0 0 0
SMALL
GASTEIGER

@<TRIPOS>ATOM
      1  C          8.3960   -0.6250   -2.1760 C.3     1  UNL1        0.1270
      2  C          8.4310   -1.9000   -2.9130 C.2     1  UNL1        0.3030
      3  O          9.5370   -2.4830   -3.0750 O.2     1  UNL1       -0.2520
      4  O          7.2740   -2.4910   -3.4400 O.3     1  UNL1       -0.4810
      5  H          7.3290   -2.9400   -4.3440 H       1  UNL1        0.2960
      6  C          7.0060   -0.0140   -2.1510 C.3     1  UNL1        0.0470
      7  C          6.4760    0.0500   -0.7640 C.2     1  UNL1       -0.0470
      8  C          5.8350    1.1900   -0.3030 C.2     1  UNL1        0.0040
      9  C          6.5970   -0.9970    0.1310 C.2     1  UNL1        0.0040
     10  C          5.3430    1.2840    0.9790 C.2     1  UNL1        0.0000
     11  C          6.1030   -0.9020    1.4150 C.2     1  UNL1        0.0000
     12  C          5.4700    0.2340    1.8660 C.2     1  UNL1        0.0000
@<TRIPOS>BOND
     1     5     4    1
     2     4     2    1
     3     3     2    2
     4     2     1    1
     5     1     6    1
     6     6     7    1
     7     7     8    2
     8     7     9    1
     9     8    10    1
    10     9    11    2
    11    10    12    2
    12    11    12    1
