MODEL 1
REMARK VINA RESULT:      -7.3      0.000      0.000
REMARK SMILES O=C(O)CCc1ccccc1
REMARK SMILES IDX 4 1 2 2 1 3 3 4 5 6 6 7 7 8 11 9 8 10 10 11 9 12
REMARK H PARENT 3 5
REMARK Flexibility Score: inf
ROOT
ATOM      1  C   UNL     1       8.405  -0.662  -2.112  1.00  0.00     0.127 C 
ENDROOT
BRANCH   1   2
ATOM      2  C   UNL     1       8.444  -1.913  -2.890  1.00  0.00     0.303 C 
ATOM      3  O   UNL     1       9.554  -2.481  -3.080  1.00  0.00    -0.252 OA
BRANCH   2   4
ATOM      4  O   UNL     1       7.288  -2.497  -3.426  1.00  0.00    -0.481 OA
ATOM      5  H   UNL     1       7.325  -3.465  -3.717  1.00  0.00     0.296 HD
ENDBRANCH   2   4
ENDBRANCH   1   2
BRANCH   1   6
ATOM      6  C   UNL     1       7.028  -0.022  -2.124  1.00  0.00     0.047 C 
BRANCH   6   7
ATOM      7  C   UNL     1       6.480   0.086  -0.747  1.00  0.00    -0.047 A 
ATOM      8  C   UNL     1       6.602  -0.967   0.149  1.00  0.00     0.004 A 
ATOM      9  C   UNL     1       5.821   1.213  -0.290  1.00  0.00     0.004 A 
ATOM     10  C   UNL     1       6.096  -0.902   1.427  1.00  0.00     0.000 A 
ATOM     11  C   UNL     1       5.315   1.277   0.990  1.00  0.00     0.000 A 
ATOM     12  C   UNL     1       5.439   0.227   1.872  1.00  0.00     0.000 A 
ENDBRANCH   6   7
ENDBRANCH   1   6
TORSDOF 4
ENDMDL
MODEL 2
REMARK VINA RESULT:      -7.3      0.036      1.421
REMARK SMILES O=C(O)CCc1ccccc1
REMARK SMILES IDX 4 1 2 2 1 3 3 4 5 6 6 7 7 8 11 9 8 10 10 11 9 12
REMARK H PARENT 3 5
REMARK Flexibility Score: inf
ROOT
ATOM      1  C   UNL     1       8.396  -0.625  -2.176  1.00  0.00     0.127 C 
ENDROOT
BRANCH   1   2
ATOM      2  C   UNL     1       8.431  -1.900  -2.913  1.00  0.00     0.303 C 
ATOM      3  O   UNL     1       9.537  -2.483  -3.075  1.00  0.00    -0.252 OA
BRANCH   2   4
ATOM      4  O   UNL     1       7.274  -2.491  -3.440  1.00  0.00    -0.481 OA
ATOM      5  H   UNL     1       7.329  -2.940  -4.344  1.00  0.00     0.296 HD
ENDBRANCH   2   4
ENDBRANCH   1   2
BRANCH   1   6
ATOM      6  C   UNL     1       7.006  -0.014  -2.151  1.00  0.00     0.047 C 
BRANCH   6   7
ATOM      7  C   UNL     1       6.476   0.050  -0.764  1.00  0.00    -0.047 A 
ATOM      8  C   UNL     1       5.835   1.190  -0.303  1.00  0.00     0.004 A 
ATOM      9  C   UNL     1       6.597  -0.997   0.131  1.00  0.00     0.004 A 
ATOM     10  C   UNL     1       5.343   1.284   0.979  1.00  0.00     0.000 A 
ATOM     11  C   UNL     1       6.103  -0.902   1.415  1.00  0.00     0.000 A 
ATOM     12  C   UNL     1       5.470   0.234   1.866  1.00  0.00     0.000 A 
ENDBRANCH   6   7
ENDBRANCH   1   6
TORSDOF 4
ENDMDL
MODEL 3
REMARK VINA RESULT:      -7.2      0.291      1.739
REMARK SMILES O=C(O)CCc1ccccc1
REMARK SMILES IDX 4 1 2 2 1 3 3 4 5 6 6 7 7 8 11 9 8 10 10 11 9 12
REMARK H PARENT 3 5
REMARK Flexibility Score: inf
ROOT
ATOM      1  C   UNL     1       8.411  -0.853  -1.859  1.00  0.00     0.127 C 
ENDROOT
BRANCH   1   2
ATOM      2  C   UNL     1       8.390  -1.977  -2.812  1.00  0.00     0.303 C 
ATOM      3  O   UNL     1       7.280  -2.400  -3.235  1.00  0.00    -0.252 OA
BRANCH   2   4
ATOM      4  O   UNL     1       9.564  -2.594  -3.267  1.00  0.00    -0.481 OA
ATOM      5  H   UNL     1       9.987  -3.311  -2.693  1.00  0.00     0.296 HD
ENDBRANCH   2   4
ENDBRANCH   1   2
BRANCH   1   6
ATOM      6  C   UNL     1       7.192   0.041  -1.999  1.00  0.00     0.047 C 
BRANCH   6   7
ATOM      7  C   UNL     1       6.505   0.213  -0.693  1.00  0.00    -0.047 A 
ATOM      8  C   UNL     1       5.775   1.362  -0.423  1.00  0.00     0.004 A 
ATOM      9  C   UNL     1       6.559  -0.735   0.312  1.00  0.00     0.004 A 
ATOM     10  C   UNL     1       5.136   1.556   0.781  1.00  0.00     0.000 A 
ATOM     11  C   UNL     1       5.918  -0.540   1.517  1.00  0.00     0.000 A 
ATOM     12  C   UNL     1       5.197   0.603   1.778  1.00  0.00     0.000 A 
ENDBRANCH   6   7
ENDBRANCH   1   6
TORSDOF 4
ENDMDL
MODEL 4
REMARK VINA RESULT:      -6.8      3.398      5.098
REMARK SMILES O=C(O)CCc1ccccc1
REMARK SMILES IDX 4 1 2 2 1 3 3 4 5 6 6 7 7 8 11 9 8 10 10 11 9 12
REMARK H PARENT 3 5
REMARK Flexibility Score: inf
ROOT
ATOM      1  C   UNL     1       4.996   1.782   0.718  1.00  0.00     0.127 C 
ENDROOT
BRANCH   1   2
ATOM      2  C   UNL     1       4.472   1.117   1.924  1.00  0.00     0.303 C 
ATOM      3  O   UNL     1       5.162   0.216   2.475  1.00  0.00    -0.252 OA
BRANCH   2   4
ATOM      4  O   UNL     1       3.231   1.451   2.484  1.00  0.00    -0.481 OA
ATOM      5  H   UNL     1       2.437   0.855   2.292  1.00  0.00     0.296 HD
ENDBRANCH   2   4
ENDBRANCH   1   2
BRANCH   1   6
ATOM      6  C   UNL     1       6.509   1.905   0.742  1.00  0.00     0.047 C 
BRANCH   6   7
ATOM      7  C   UNL     1       7.126   1.092  -0.338  1.00  0.00    -0.047 A 
ATOM      8  C   UNL     1       8.474   1.222  -0.639  1.00  0.00     0.004 A 
ATOM      9  C   UNL     1       6.407   0.186  -1.096  1.00  0.00     0.004 A 
ATOM     10  C   UNL     1       9.073   0.492  -1.640  1.00  0.00     0.000 A 
ATOM     11  C   UNL     1       7.009  -0.545  -2.098  1.00  0.00     0.000 A 
ATOM     12  C   UNL     1       8.347  -0.410  -2.392  1.00  0.00     0.000 A 
ENDBRANCH   6   7
ENDBRANCH   1   6
TORSDOF 4
ENDMDL
MODEL 5
REMARK VINA RESULT:      -6.5      1.972      2.958
REMARK SMILES O=C(O)CCc1ccccc1
REMARK SMILES IDX 4 1 2 2 1 3 3 4 5 6 6 7 7 8 11 9 8 10 10 11 9 12
REMARK H PARENT 3 5
REMARK Flexibility Score: inf
ROOT
ATOM      1  C   UNL     1       8.281  -1.737   1.185  1.00  0.00     0.127 C 
ENDROOT
BRANCH   1   2
ATOM      2  C   UNL     1       8.689  -2.959   0.470  1.00  0.00     0.303 C 
ATOM      3  O   UNL     1       9.434  -3.791   1.056  1.00  0.00    -0.252 OA
BRANCH   2   4
ATOM      4  O   UNL     1       8.277  -3.231  -0.842  1.00  0.00    -0.481 OA
ATOM      5  H   UNL     1       7.391  -3.696  -0.984  1.00  0.00     0.296 HD
ENDBRANCH   2   4
ENDBRANCH   1   2
BRANCH   1   6
ATOM      6  C   UNL     1       6.774  -1.645   1.350  1.00  0.00     0.047 C 
BRANCH   6   7
ATOM      7  C   UNL     1       6.255  -0.366   0.798  1.00  0.00    -0.047 A 
ATOM      8  C   UNL     1       5.474   0.476   1.577  1.00  0.00     0.004 A 
ATOM      9  C   UNL     1       6.505   0.045  -0.498  1.00  0.00     0.004 A 
ATOM     10  C   UNL     1       4.970   1.660   1.092  1.00  0.00     0.000 A 
ATOM     11  C   UNL     1       5.999   1.233  -0.983  1.00  0.00     0.000 A 
ATOM     12  C   UNL     1       5.224   2.062  -0.204  1.00  0.00     0.000 A 
ENDBRANCH   6   7
ENDBRANCH   1   6
TORSDOF 4
ENDMDL
