@<TRIPOS>MOLECULE
/home/cewinharhar/GITHUB/reincatalyze/data/processed/docking_pred/2023-Apr-25-2248_maxeplen10_maxtrainstep1000_exh16_gamma099_lrac3e-4_lrcr1e-3/b393d0f0af23d36e99ef7bf88514b4beffd0378d_ligand_2.pdbqt
 12 12 0 0 0
SMALL
GASTEIGER

@<TRIPOS>ATOM
      1  C          8.4110   -0.8530   -1.8590 C.3     1  UNL1        0.1270
      2  C          8.3900   -1.9770   -2.8120 C.2     1  UNL1        0.3030
      3  O          7.2800   -2.4000   -3.2350 O.2     1  UNL1       -0.2520
      4  O          9.5640   -2.5940   -3.2670 O.3     1  UNL1       -0.4810
      5  H          9.9870   -3.3110   -2.6930 H       1  UNL1        0.2960
      6  C          7.1920    0.0410   -1.9990 C.3     1  UNL1        0.0470
      7  C          6.5050    0.2130   -0.6930 C.2     1  UNL1       -0.0470
      8  C          5.7750    1.3620   -0.4230 C.2     1  UNL1        0.0040
      9  C          6.5590   -0.7350    0.3120 C.2     1  UNL1        0.0040
     10  C          5.1360    1.5560    0.7810 C.2     1  UNL1        0.0000
     11  C          5.9180   -0.5400    1.5170 C.2     1  UNL1        0.0000
     12  C          5.1970    0.6030    1.7780 C.2     1  UNL1        0.0000
@<TRIPOS>BOND
     1     4     2    1
     2     4     5    1
     3     3     2    2
     4     2     1    1
     5     6     1    1
     6     6     7    1
     7     7     8    2
     8     7     9    1
     9     8    10    1
    10     9    11    2
    11    10    12    2
    12    11    12    1
