@<TRIPOS>MOLECULE
/home/cewinharhar/GITHUB/reincatalyze/data/processed/docking_pred/2023-Apr-25-2248_maxeplen10_maxtrainstep1000_exh16_gamma099_lrac3e-4_lrcr1e-3/b3ccd1df948aefc26948fdc9bbc960af2f6fd47d_ligand_2.pdbqt
 12 12 0 0 0
SMALL
GASTEIGER

@<TRIPOS>ATOM
      1  C          5.3840    2.9760    0.1260 C.3     1  UNL1        0.1270
      2  C          6.2370    3.9130    0.8780 C.2     1  UNL1        0.3030
      3  O          6.9050    4.7750    0.2450 O.2     1  UNL1       -0.2520
      4  O          6.3310    3.8800    2.2770 O.3     1  UNL1       -0.4810
      5  H          5.5080    3.6370    2.8110 H       1  UNL1        0.2960
      6  C          5.1950    1.6580    0.8570 C.3     1  UNL1        0.0470
      7  C          5.9930    0.5780    0.2210 C.2     1  UNL1       -0.0470
      8  C          6.4480   -0.5000    0.9680 C.2     1  UNL1        0.0040
      9  C          6.3310    0.5870   -1.1200 C.2     1  UNL1        0.0040
     10  C          7.1970   -1.5110    0.4110 C.2     1  UNL1        0.0000
     11  C          7.0820   -0.4260   -1.6770 C.2     1  UNL1        0.0000
     12  C          7.5300   -1.4910   -0.9290 C.2     1  UNL1        0.0000
@<TRIPOS>BOND
     1    11     9    1
     2    11    12    2
     3     9     7    2
     4    12    10    1
     5     1     6    1
     6     1     2    1
     7     7     6    1
     8     7     8    1
     9     3     2    2
    10    10     8    2
    11     2     4    1
    12     4     5    1
