MODEL 1
REMARK VINA RESULT:      -7.3      0.000      0.000
REMARK SMILES O=C(O)CCc1ccccc1
REMARK SMILES IDX 4 1 2 2 1 3 3 4 5 6 6 7 7 8 11 9 8 10 10 11 9 12
REMARK H PARENT 3 5
REMARK Flexibility Score: inf
ROOT
ATOM      1  C   UNL     1       8.390  -0.612  -2.199  1.00  0.00     0.127 C 
ENDROOT
BRANCH   1   2
ATOM      2  C   UNL     1       8.426  -1.897  -2.921  1.00  0.00     0.303 C 
ATOM      3  O   UNL     1       9.533  -2.478  -3.081  1.00  0.00    -0.252 OA
BRANCH   2   4
ATOM      4  O   UNL     1       7.269  -2.497  -3.437  1.00  0.00    -0.481 OA
ATOM      5  H   UNL     1       6.376  -2.056  -3.263  1.00  0.00     0.296 HD
ENDBRANCH   2   4
ENDBRANCH   1   2
BRANCH   1   6
ATOM      6  C   UNL     1       6.995  -0.015  -2.160  1.00  0.00     0.047 C 
BRANCH   6   7
ATOM      7  C   UNL     1       6.484   0.054  -0.766  1.00  0.00    -0.047 A 
ATOM      8  C   UNL     1       6.630  -1.024   0.095  1.00  0.00     0.004 A 
ATOM      9  C   UNL     1       5.838   1.167  -0.260  1.00  0.00     0.004 A 
ATOM     10  C   UNL     1       6.158  -0.996   1.388  1.00  0.00     0.000 A 
ATOM     11  C   UNL     1       5.366   1.194   1.035  1.00  0.00     0.000 A 
ATOM     12  C   UNL     1       5.514   0.120   1.883  1.00  0.00     0.000 A 
ENDBRANCH   6   7
ENDBRANCH   1   6
TORSDOF 4
ENDMDL
MODEL 2
REMARK VINA RESULT:      -7.3      0.160      1.726
REMARK SMILES O=C(O)CCc1ccccc1
REMARK SMILES IDX 4 1 2 2 1 3 3 4 5 6 6 7 7 8 11 9 8 10 10 11 9 12
REMARK H PARENT 3 5
REMARK Flexibility Score: inf
ROOT
ATOM      1  C   UNL     1       8.391  -0.702  -2.069  1.00  0.00     0.127 C 
ENDROOT
BRANCH   1   2
ATOM      2  C   UNL     1       8.393  -1.932  -2.881  1.00  0.00     0.303 C 
ATOM      3  O   UNL     1       7.292  -2.421  -3.254  1.00  0.00    -0.252 OA
BRANCH   2   4
ATOM      4  O   UNL     1       9.580  -2.579  -3.255  1.00  0.00    -0.481 OA
ATOM      5  H   UNL     1       9.521  -3.516  -3.630  1.00  0.00     0.296 HD
ENDBRANCH   2   4
ENDBRANCH   1   2
BRANCH   1   6
ATOM      6  C   UNL     1       7.042  -0.006  -2.084  1.00  0.00     0.047 C 
BRANCH   6   7
ATOM      7  C   UNL     1       6.471   0.079  -0.714  1.00  0.00    -0.047 A 
ATOM      8  C   UNL     1       5.804   1.221  -0.296  1.00  0.00     0.004 A 
ATOM      9  C   UNL     1       6.577  -0.948   0.206  1.00  0.00     0.004 A 
ATOM     10  C   UNL     1       5.274   1.335   0.969  1.00  0.00     0.000 A 
ATOM     11  C   UNL     1       6.046  -0.832   1.472  1.00  0.00     0.000 A 
ATOM     12  C   UNL     1       5.386   0.305   1.881  1.00  0.00     0.000 A 
ENDBRANCH   6   7
ENDBRANCH   1   6
TORSDOF 4
ENDMDL
MODEL 3
REMARK VINA RESULT:      -6.8      3.402      5.093
REMARK SMILES O=C(O)CCc1ccccc1
REMARK SMILES IDX 4 1 2 2 1 3 3 4 5 6 6 7 7 8 11 9 8 10 10 11 9 12
REMARK H PARENT 3 5
REMARK Flexibility Score: inf
ROOT
ATOM      1  C   UNL     1       4.989   1.777   0.724  1.00  0.00     0.127 C 
ENDROOT
BRANCH   1   2
ATOM      2  C   UNL     1       4.462   1.108   1.927  1.00  0.00     0.303 C 
ATOM      3  O   UNL     1       5.146   0.199   2.471  1.00  0.00    -0.252 OA
BRANCH   2   4
ATOM      4  O   UNL     1       3.224   1.449   2.490  1.00  0.00    -0.481 OA
ATOM      5  H   UNL     1       3.051   2.416   2.727  1.00  0.00     0.296 HD
ENDBRANCH   2   4
ENDBRANCH   1   2
BRANCH   1   6
ATOM      6  C   UNL     1       6.503   1.896   0.751  1.00  0.00     0.047 C 
BRANCH   6   7
ATOM      7  C   UNL     1       7.120   1.086  -0.332  1.00  0.00    -0.047 A 
ATOM      8  C   UNL     1       8.463   1.233  -0.648  1.00  0.00     0.004 A 
ATOM      9  C   UNL     1       6.406   0.166  -1.077  1.00  0.00     0.004 A 
ATOM     10  C   UNL     1       9.061   0.505  -1.651  1.00  0.00     0.000 A 
ATOM     11  C   UNL     1       7.006  -0.563  -2.082  1.00  0.00     0.000 A 
ATOM     12  C   UNL     1       8.339  -0.410  -2.391  1.00  0.00     0.000 A 
ENDBRANCH   6   7
ENDBRANCH   1   6
TORSDOF 4
ENDMDL
MODEL 4
REMARK VINA RESULT:      -6.7      1.967      2.709
REMARK SMILES O=C(O)CCc1ccccc1
REMARK SMILES IDX 4 1 2 2 1 3 3 4 5 6 6 7 7 8 11 9 8 10 10 11 9 12
REMARK H PARENT 3 5
REMARK Flexibility Score: inf
ROOT
ATOM      1  C   UNL     1       8.256   0.240  -2.175  1.00  0.00     0.127 C 
ENDROOT
BRANCH   1   2
ATOM      2  C   UNL     1       9.382   0.379  -1.234  1.00  0.00     0.303 C 
ATOM      3  O   UNL     1       9.453  -0.399  -0.245  1.00  0.00    -0.252 OA
BRANCH   2   4
ATOM      4  O   UNL     1      10.381   1.349  -1.402  1.00  0.00    -0.481 OA
ATOM      5  H   UNL     1      11.319   1.044  -1.623  1.00  0.00     0.296 HD
ENDBRANCH   2   4
ENDBRANCH   1   2
BRANCH   1   6
ATOM      6  C   UNL     1       7.111  -0.564  -1.585  1.00  0.00     0.047 C 
BRANCH   6   7
ATOM      7  C   UNL     1       6.333   0.251  -0.616  1.00  0.00    -0.047 A 
ATOM      8  C   UNL     1       5.804   1.479  -0.989  1.00  0.00     0.004 A 
ATOM      9  C   UNL     1       6.103  -0.152   0.686  1.00  0.00     0.004 A 
ATOM     10  C   UNL     1       5.087   2.261  -0.112  1.00  0.00     0.000 A 
ATOM     11  C   UNL     1       5.385   0.633   1.563  1.00  0.00     0.000 A 
ATOM     12  C   UNL     1       4.865   1.851   1.186  1.00  0.00     0.000 A 
ENDBRANCH   6   7
ENDBRANCH   1   6
TORSDOF 4
ENDMDL
MODEL 5
REMARK VINA RESULT:      -6.6      3.784      4.990
REMARK SMILES O=C(O)CCc1ccccc1
REMARK SMILES IDX 4 1 2 2 1 3 3 4 5 6 6 7 7 8 11 9 8 10 10 11 9 12
REMARK H PARENT 3 5
REMARK Flexibility Score: inf
ROOT
ATOM      1  C   UNL     1       5.384   2.976   0.126  1.00  0.00     0.127 C 
ENDROOT
BRANCH   1   2
ATOM      2  C   UNL     1       6.237   3.913   0.878  1.00  0.00     0.303 C 
ATOM      3  O   UNL     1       6.905   4.775   0.245  1.00  0.00    -0.252 OA
BRANCH   2   4
ATOM      4  O   UNL     1       6.331   3.880   2.277  1.00  0.00    -0.481 OA
ATOM      5  H   UNL     1       5.508   3.637   2.811  1.00  0.00     0.296 HD
ENDBRANCH   2   4
ENDBRANCH   1   2
BRANCH   1   6
ATOM      6  C   UNL     1       5.195   1.658   0.857  1.00  0.00     0.047 C 
BRANCH   6   7
ATOM      7  C   UNL     1       5.993   0.578   0.221  1.00  0.00    -0.047 A 
ATOM      8  C   UNL     1       6.448  -0.500   0.968  1.00  0.00     0.004 A 
ATOM      9  C   UNL     1       6.331   0.587  -1.120  1.00  0.00     0.004 A 
ATOM     10  C   UNL     1       7.197  -1.511   0.411  1.00  0.00     0.000 A 
ATOM     11  C   UNL     1       7.082  -0.426  -1.677  1.00  0.00     0.000 A 
ATOM     12  C   UNL     1       7.530  -1.491  -0.929  1.00  0.00     0.000 A 
ENDBRANCH   6   7
ENDBRANCH   1   6
TORSDOF 4
ENDMDL
