@<TRIPOS>MOLECULE
/home/cewinharhar/GITHUB/reincatalyze/data/processed/docking_pred/2023-Apr-25-2248_maxeplen10_maxtrainstep1000_exh16_gamma099_lrac3e-4_lrcr1e-3/b3ccd1df948aefc26948fdc9bbc960af2f6fd47d_ligand_2.pdbqt
 12 12 0 0 0
SMALL
GASTEIGER

@<TRIPOS>ATOM
      1  C          4.9890    1.7770    0.7240 C.3     1  UNL1        0.1270
      2  C          4.4620    1.1080    1.9270 C.2     1  UNL1        0.3030
      3  O          5.1460    0.1990    2.4710 O.2     1  UNL1       -0.2520
      4  O          3.2240    1.4490    2.4900 O.3     1  UNL1       -0.4810
      5  H          3.0510    2.4160    2.7270 H       1  UNL1        0.2960
      6  C          6.5030    1.8960    0.7510 C.3     1  UNL1        0.0470
      7  C          7.1200    1.0860   -0.3320 C.2     1  UNL1       -0.0470
      8  C          8.4630    1.2330   -0.6480 C.2     1  UNL1        0.0040
      9  C          6.4060    0.1660   -1.0770 C.2     1  UNL1        0.0040
     10  C          9.0610    0.5050   -1.6510 C.2     1  UNL1        0.0000
     11  C          7.0060   -0.5630   -2.0820 C.2     1  UNL1        0.0000
     12  C          8.3390   -0.4100   -2.3910 C.2     1  UNL1        0.0000
@<TRIPOS>BOND
     1    12    11    2
     2    12    10    1
     3    11     9    1
     4    10     8    2
     5     9     7    2
     6     8     7    1
     7     7     6    1
     8     1     6    1
     9     1     2    1
    10     2     3    2
    11     2     4    1
    12     4     5    1
