@<TRIPOS>MOLECULE
/home/cewinharhar/GITHUB/reincatalyze/data/processed/docking_pred/2023-Apr-25-2248_maxeplen10_maxtrainstep1000_exh16_gamma099_lrac3e-4_lrcr1e-3/b3ccd1df948aefc26948fdc9bbc960af2f6fd47d_ligand_2.pdbqt
 12 12 0 0 0
SMALL
GASTEIGER

@<TRIPOS>ATOM
      1  C          8.2560    0.2400   -2.1750 C.3     1  UNL1        0.1270
      2  C          9.3820    0.3790   -1.2340 C.2     1  UNL1        0.3030
      3  O          9.4530   -0.3990   -0.2450 O.2     1  UNL1       -0.2520
      4  O         10.3810    1.3490   -1.4020 O.3     1  UNL1       -0.4810
      5  H         11.3190    1.0440   -1.6230 H       1  UNL1        0.2960
      6  C          7.1110   -0.5640   -1.5850 C.3     1  UNL1        0.0470
      7  C          6.3330    0.2510   -0.6160 C.2     1  UNL1       -0.0470
      8  C          5.8040    1.4790   -0.9890 C.2     1  UNL1        0.0040
      9  C          6.1030   -0.1520    0.6860 C.2     1  UNL1        0.0040
     10  C          5.0870    2.2610   -0.1120 C.2     1  UNL1        0.0000
     11  C          5.3850    0.6330    1.5630 C.2     1  UNL1        0.0000
     12  C          4.8650    1.8510    1.1860 C.2     1  UNL1        0.0000
@<TRIPOS>BOND
     1     1     6    1
     2     1     2    1
     3     5     4    1
     4     6     7    1
     5     4     2    1
     6     2     3    2
     7     8     7    2
     8     8    10    1
     9     7     9    1
    10    10    12    2
    11     9    11    2
    12    12    11    1
