@<TRIPOS>MOLECULE
/home/cewinharhar/GITHUB/reincatalyze/data/processed/docking_pred/2023-Apr-25-2248_maxeplen10_maxtrainstep1000_exh16_gamma099_lrac3e-4_lrcr1e-3/b3ccd1df948aefc26948fdc9bbc960af2f6fd47d_ligand_2.pdbqt
 12 12 0 0 0
SMALL
GASTEIGER

@<TRIPOS>ATOM
      1  C          8.3910   -0.7020   -2.0690 C.3     1  UNL1        0.1270
      2  C          8.3930   -1.9320   -2.8810 C.2     1  UNL1        0.3030
      3  O          7.2920   -2.4210   -3.2540 O.2     1  UNL1       -0.2520
      4  O          9.5800   -2.5790   -3.2550 O.3     1  UNL1       -0.4810
      5  H          9.5210   -3.5160   -3.6300 H       1  UNL1        0.2960
      6  C          7.0420   -0.0060   -2.0840 C.3     1  UNL1        0.0470
      7  C          6.4710    0.0790   -0.7140 C.2     1  UNL1       -0.0470
      8  C          5.8040    1.2210   -0.2960 C.2     1  UNL1        0.0040
      9  C          6.5770   -0.9480    0.2060 C.2     1  UNL1        0.0040
     10  C          5.2740    1.3350    0.9690 C.2     1  UNL1        0.0000
     11  C          6.0460   -0.8320    1.4720 C.2     1  UNL1        0.0000
     12  C          5.3860    0.3050    1.8810 C.2     1  UNL1        0.0000
@<TRIPOS>BOND
     1     5     4    1
     2     4     2    1
     3     3     2    2
     4     2     1    1
     5     6     1    1
     6     6     7    1
     7     7     8    2
     8     7     9    1
     9     8    10    1
    10     9    11    2
    11    10    12    2
    12    11    12    1
