@<TRIPOS>MOLECULE
/home/cewinharhar/GITHUB/reincatalyze/data/processed/docking_pred/2023-Apr-25-2248_maxeplen10_maxtrainstep1000_exh16_gamma099_lrac3e-4_lrcr1e-3/b3ccd1df948aefc26948fdc9bbc960af2f6fd47d_ligand_2.pdbqt
 12 12 0 0 0
SMALL
GASTEIGER

@<TRIPOS>ATOM
      1  C          8.3900   -0.6120   -2.1990 C.3     1  UNL1        0.1270
      2  C          8.4260   -1.8970   -2.9210 C.2     1  UNL1        0.3030
      3  O          9.5330   -2.4780   -3.0810 O.2     1  UNL1       -0.2520
      4  O          7.2690   -2.4970   -3.4370 O.3     1  UNL1       -0.4810
      5  H          6.3760   -2.0560   -3.2630 H       1  UNL1        0.2960
      6  C          6.9950   -0.0150   -2.1600 C.3     1  UNL1        0.0470
      7  C          6.4840    0.0540   -0.7660 C.2     1  UNL1       -0.0470
      8  C          6.6300   -1.0240    0.0950 C.2     1  UNL1        0.0040
      9  C          5.8380    1.1670   -0.2600 C.2     1  UNL1        0.0040
     10  C          6.1580   -0.9960    1.3880 C.2     1  UNL1        0.0000
     11  C          5.3660    1.1940    1.0350 C.2     1  UNL1        0.0000
     12  C          5.5140    0.1200    1.8830 C.2     1  UNL1        0.0000
@<TRIPOS>BOND
     1     4     5    1
     2     4     2    1
     3     3     2    2
     4     2     1    1
     5     1     6    1
     6     6     7    1
     7     7     9    2
     8     7     8    1
     9     9    11    1
    10     8    10    2
    11    11    12    2
    12    10    12    1
