@<TRIPOS>MOLECULE
/home/cewinharhar/GITHUB/reincatalyze/data/processed/docking_pred/2023-Apr-25-2248_maxeplen10_maxtrainstep1000_exh16_gamma099_lrac3e-4_lrcr1e-3/b3efa5aa79561967f2a1346927635c3d7bfec8a2_ligand_2.pdbqt
 12 12 0 0 0
SMALL
GASTEIGER

@<TRIPOS>ATOM
      1  C          5.5570    1.9950    1.2050 C.3     1  UNL1        0.1270
      2  C          4.7600    1.1030    2.0660 C.2     1  UNL1        0.3030
      3  O          5.1970   -0.0520    2.3230 O.2     1  UNL1       -0.2520
      4  O          3.5290    1.4940    2.6120 O.3     1  UNL1       -0.4810
      5  H          2.8480    0.7790    2.8310 H       1  UNL1        0.2960
      6  C          5.3850    1.6740   -0.2690 C.3     1  UNL1        0.0470
      7  C          6.6200    1.0670   -0.8290 C.2     1  UNL1       -0.0470
      8  C          6.5470    0.1160   -1.8370 C.2     1  UNL1        0.0040
      9  C          7.8860    1.3990   -0.3830 C.2     1  UNL1        0.0040
     10  C          7.6710   -0.4720   -2.3690 C.2     1  UNL1        0.0000
     11  C          9.0110    0.8090   -0.9170 C.2     1  UNL1        0.0000
     12  C          8.9300   -0.1350   -1.9160 C.2     1  UNL1        0.0000
@<TRIPOS>BOND
     1    10    12    2
     2    10     8    1
     3    12    11    1
     4     8     7    2
     5    11     9    2
     6     7     9    1
     7     7     6    1
     8     6     1    1
     9     1     2    1
    10     2     3    2
    11     2     4    1
    12     4     5    1
