@<TRIPOS>MOLECULE
/home/cewinharhar/GITHUB/reincatalyze/data/processed/docking_pred/2023-Apr-25-2248_maxeplen10_maxtrainstep1000_exh16_gamma099_lrac3e-4_lrcr1e-3/b3efa5aa79561967f2a1346927635c3d7bfec8a2_ligand_2.pdbqt
 12 12 0 0 0
SMALL
GASTEIGER

@<TRIPOS>ATOM
      1  C          5.0350    1.8080    0.6870 C.3     1  UNL1        0.1270
      2  C          4.5950    1.2090    1.9600 C.2     1  UNL1        0.3030
      3  O          5.3110    0.3220    2.4990 O.2     1  UNL1       -0.2520
      4  O          3.4050    1.5930    2.5950 O.3     1  UNL1       -0.4810
      5  H          2.6040    1.8220    2.0230 H       1  UNL1        0.2960
      6  C          6.5400    1.9970    0.6320 C.3     1  UNL1        0.0470
      7  C          7.1490    1.1260   -0.4070 C.2     1  UNL1       -0.0470
      8  C          8.5100    1.1850   -0.6710 C.2     1  UNL1        0.0040
      9  C          6.4100    0.2340   -1.1630 C.2     1  UNL1        0.0040
     10  C          9.1020    0.4000   -1.6340 C.2     1  UNL1        0.0000
     11  C          7.0040   -0.5510   -2.1270 C.2     1  UNL1        0.0000
     12  C          8.3550   -0.4870   -2.3840 C.2     1  UNL1        0.0000
@<TRIPOS>BOND
     1    12    11    2
     2    12    10    1
     3    11     9    1
     4    10     8    2
     5     9     7    2
     6     8     7    1
     7     7     6    1
     8     6     1    1
     9     1     2    1
    10     2     3    2
    11     2     4    1
    12     5     4    1
