@<TRIPOS>MOLECULE
/home/cewinharhar/GITHUB/reincatalyze/data/processed/docking_pred/2023-Apr-25-2248_maxeplen10_maxtrainstep1000_exh16_gamma099_lrac3e-4_lrcr1e-3/b3efa5aa79561967f2a1346927635c3d7bfec8a2_ligand_2.pdbqt
 12 12 0 0 0
SMALL
GASTEIGER

@<TRIPOS>ATOM
      1  C          6.8730   -1.2180   -2.0840 C.3     1  UNL1        0.1270
      2  C          8.1050   -1.7630   -2.6830 C.2     1  UNL1        0.3030
      3  O          8.0330   -2.8060   -3.3870 O.2     1  UNL1       -0.2520
      4  O          9.3570   -1.1590   -2.4970 O.3     1  UNL1       -0.4810
      5  H          9.8110   -0.7330   -3.2940 H       1  UNL1        0.2960
      6  C          6.9920    0.2640   -1.7760 C.3     1  UNL1        0.0470
      7  C          6.2760    0.6060   -0.5190 C.2     1  UNL1       -0.0470
      8  C          6.2980   -0.2590    0.5650 C.2     1  UNL1        0.0040
      9  C          5.5550    1.7750   -0.3630 C.2     1  UNL1        0.0040
     10  C          5.6370    0.0230    1.7390 C.2     1  UNL1        0.0000
     11  C          4.8930    2.0570    0.8130 C.2     1  UNL1        0.0000
     12  C          4.9180    1.1930    1.8840 C.2     1  UNL1        0.0000
@<TRIPOS>BOND
     1     3     2    2
     2     5     4    1
     3     2     4    1
     4     2     1    1
     5     1     6    1
     6     6     7    1
     7     7     9    2
     8     7     8    1
     9     9    11    1
    10     8    10    2
    11    11    12    2
    12    10    12    1
