MODEL 1
REMARK VINA RESULT:      -6.9      0.000      0.000
REMARK SMILES O=C(O)CCc1ccccc1
REMARK SMILES IDX 4 1 2 2 1 3 3 4 5 6 6 7 7 8 11 9 8 10 10 11 9 12
REMARK H PARENT 3 5
REMARK Flexibility Score: inf
ROOT
ATOM      1  C   UNL     1       5.035   1.808   0.687  1.00  0.00     0.127 C 
ENDROOT
BRANCH   1   2
ATOM      2  C   UNL     1       4.595   1.209   1.960  1.00  0.00     0.303 C 
ATOM      3  O   UNL     1       5.311   0.322   2.499  1.00  0.00    -0.252 OA
BRANCH   2   4
ATOM      4  O   UNL     1       3.405   1.593   2.595  1.00  0.00    -0.481 OA
ATOM      5  H   UNL     1       2.604   1.822   2.023  1.00  0.00     0.296 HD
ENDBRANCH   2   4
ENDBRANCH   1   2
BRANCH   1   6
ATOM      6  C   UNL     1       6.540   1.997   0.632  1.00  0.00     0.047 C 
BRANCH   6   7
ATOM      7  C   UNL     1       7.149   1.126  -0.407  1.00  0.00    -0.047 A 
ATOM      8  C   UNL     1       8.510   1.185  -0.671  1.00  0.00     0.004 A 
ATOM      9  C   UNL     1       6.410   0.234  -1.163  1.00  0.00     0.004 A 
ATOM     10  C   UNL     1       9.102   0.400  -1.634  1.00  0.00     0.000 A 
ATOM     11  C   UNL     1       7.004  -0.551  -2.127  1.00  0.00     0.000 A 
ATOM     12  C   UNL     1       8.355  -0.487  -2.384  1.00  0.00     0.000 A 
ENDBRANCH   6   7
ENDBRANCH   1   6
TORSDOF 4
ENDMDL
MODEL 2
REMARK VINA RESULT:      -6.8      0.668      1.520
REMARK SMILES O=C(O)CCc1ccccc1
REMARK SMILES IDX 4 1 2 2 1 3 3 4 5 6 6 7 7 8 11 9 8 10 10 11 9 12
REMARK H PARENT 3 5
REMARK Flexibility Score: inf
ROOT
ATOM      1  C   UNL     1       5.557   1.995   1.205  1.00  0.00     0.127 C 
ENDROOT
BRANCH   1   2
ATOM      2  C   UNL     1       4.760   1.103   2.066  1.00  0.00     0.303 C 
ATOM      3  O   UNL     1       5.197  -0.052   2.323  1.00  0.00    -0.252 OA
BRANCH   2   4
ATOM      4  O   UNL     1       3.529   1.494   2.612  1.00  0.00    -0.481 OA
ATOM      5  H   UNL     1       2.848   0.779   2.831  1.00  0.00     0.296 HD
ENDBRANCH   2   4
ENDBRANCH   1   2
BRANCH   1   6
ATOM      6  C   UNL     1       5.385   1.674  -0.269  1.00  0.00     0.047 C 
BRANCH   6   7
ATOM      7  C   UNL     1       6.620   1.067  -0.829  1.00  0.00    -0.047 A 
ATOM      8  C   UNL     1       6.547   0.116  -1.837  1.00  0.00     0.004 A 
ATOM      9  C   UNL     1       7.886   1.399  -0.383  1.00  0.00     0.004 A 
ATOM     10  C   UNL     1       7.671  -0.472  -2.369  1.00  0.00     0.000 A 
ATOM     11  C   UNL     1       9.011   0.809  -0.917  1.00  0.00     0.000 A 
ATOM     12  C   UNL     1       8.930  -0.135  -1.916  1.00  0.00     0.000 A 
ENDBRANCH   6   7
ENDBRANCH   1   6
TORSDOF 4
ENDMDL
MODEL 3
REMARK VINA RESULT:      -6.8      3.200      4.992
REMARK SMILES O=C(O)CCc1ccccc1
REMARK SMILES IDX 4 1 2 2 1 3 3 4 5 6 6 7 7 8 11 9 8 10 10 11 9 12
REMARK H PARENT 3 5
REMARK Flexibility Score: inf
ROOT
ATOM      1  C   UNL     1       7.325  -1.138  -1.889  1.00  0.00     0.127 C 
ENDROOT
BRANCH   1   2
ATOM      2  C   UNL     1       8.751  -1.135  -2.261  1.00  0.00     0.303 C 
ATOM      3  O   UNL     1       9.188  -2.044  -3.018  1.00  0.00    -0.252 OA
BRANCH   2   4
ATOM      4  O   UNL     1       9.641  -0.153  -1.804  1.00  0.00    -0.481 OA
ATOM      5  H   UNL     1       9.665   0.738  -2.282  1.00  0.00     0.296 HD
ENDBRANCH   2   4
ENDBRANCH   1   2
BRANCH   1   6
ATOM      6  C   UNL     1       6.733   0.260  -1.874  1.00  0.00     0.047 C 
BRANCH   6   7
ATOM      7  C   UNL     1       6.133   0.571  -0.550  1.00  0.00    -0.047 A 
ATOM      8  C   UNL     1       5.455   1.764  -0.343  1.00  0.00     0.004 A 
ATOM      9  C   UNL     1       6.221  -0.287   0.531  1.00  0.00     0.004 A 
ATOM     10  C   UNL     1       4.898   2.085   0.874  1.00  0.00     0.000 A 
ATOM     11  C   UNL     1       5.662   0.036   1.749  1.00  0.00     0.000 A 
ATOM     12  C   UNL     1       4.993   1.223   1.947  1.00  0.00     0.000 A 
ENDBRANCH   6   7
ENDBRANCH   1   6
TORSDOF 4
ENDMDL
MODEL 4
REMARK VINA RESULT:      -6.8      2.712      4.693
REMARK SMILES O=C(O)CCc1ccccc1
REMARK SMILES IDX 4 1 2 2 1 3 3 4 5 6 6 7 7 8 11 9 8 10 10 11 9 12
REMARK H PARENT 3 5
REMARK Flexibility Score: inf
ROOT
ATOM      1  C   UNL     1       8.088   0.257  -2.044  1.00  0.00     0.127 C 
ENDROOT
BRANCH   1   2
ATOM      2  C   UNL     1       9.287   0.332  -1.191  1.00  0.00     0.303 C 
ATOM      3  O   UNL     1       9.399  -0.466  -0.221  1.00  0.00    -0.252 OA
BRANCH   2   4
ATOM      4  O   UNL     1      10.311   1.262  -1.421  1.00  0.00    -0.481 OA
ATOM      5  H   UNL     1      10.460   1.593  -2.364  1.00  0.00     0.296 HD
ENDBRANCH   2   4
ENDBRANCH   1   2
BRANCH   1   6
ATOM      6  C   UNL     1       6.999  -0.604  -1.429  1.00  0.00     0.047 C 
BRANCH   6   7
ATOM      7  C   UNL     1       6.275   0.135  -0.362  1.00  0.00    -0.047 A 
ATOM      8  C   UNL     1       6.105  -0.424   0.896  1.00  0.00     0.004 A 
ATOM      9  C   UNL     1       5.731   1.391  -0.559  1.00  0.00     0.004 A 
ATOM     10  C   UNL     1       5.430   0.230   1.902  1.00  0.00     0.000 A 
ATOM     11  C   UNL     1       5.056   2.046   0.449  1.00  0.00     0.000 A 
ATOM     12  C   UNL     1       4.890   1.483   1.695  1.00  0.00     0.000 A 
ENDBRANCH   6   7
ENDBRANCH   1   6
TORSDOF 4
ENDMDL
MODEL 5
REMARK VINA RESULT:      -6.7      3.403      5.066
REMARK SMILES O=C(O)CCc1ccccc1
REMARK SMILES IDX 4 1 2 2 1 3 3 4 5 6 6 7 7 8 11 9 8 10 10 11 9 12
REMARK H PARENT 3 5
REMARK Flexibility Score: inf
ROOT
ATOM      1  C   UNL     1       6.873  -1.218  -2.084  1.00  0.00     0.127 C 
ENDROOT
BRANCH   1   2
ATOM      2  C   UNL     1       8.105  -1.763  -2.683  1.00  0.00     0.303 C 
ATOM      3  O   UNL     1       8.033  -2.806  -3.387  1.00  0.00    -0.252 OA
BRANCH   2   4
ATOM      4  O   UNL     1       9.357  -1.159  -2.497  1.00  0.00    -0.481 OA
ATOM      5  H   UNL     1       9.811  -0.733  -3.294  1.00  0.00     0.296 HD
ENDBRANCH   2   4
ENDBRANCH   1   2
BRANCH   1   6
ATOM      6  C   UNL     1       6.992   0.264  -1.776  1.00  0.00     0.047 C 
BRANCH   6   7
ATOM      7  C   UNL     1       6.276   0.606  -0.519  1.00  0.00    -0.047 A 
ATOM      8  C   UNL     1       6.298  -0.259   0.565  1.00  0.00     0.004 A 
ATOM      9  C   UNL     1       5.555   1.775  -0.363  1.00  0.00     0.004 A 
ATOM     10  C   UNL     1       5.637   0.023   1.739  1.00  0.00     0.000 A 
ATOM     11  C   UNL     1       4.893   2.057   0.813  1.00  0.00     0.000 A 
ATOM     12  C   UNL     1       4.918   1.193   1.884  1.00  0.00     0.000 A 
ENDBRANCH   6   7
ENDBRANCH   1   6
TORSDOF 4
ENDMDL
