@<TRIPOS>MOLECULE
/home/cewinharhar/GITHUB/reincatalyze/data/processed/docking_pred/2023-Apr-25-2248_maxeplen10_maxtrainstep1000_exh16_gamma099_lrac3e-4_lrcr1e-3/b3efa5aa79561967f2a1346927635c3d7bfec8a2_ligand_2.pdbqt
 12 12 0 0 0
SMALL
GASTEIGER

@<TRIPOS>ATOM
      1  C          7.3250   -1.1380   -1.8890 C.3     1  UNL1        0.1270
      2  C          8.7510   -1.1350   -2.2610 C.2     1  UNL1        0.3030
      3  O          9.1880   -2.0440   -3.0180 O.2     1  UNL1       -0.2520
      4  O          9.6410   -0.1530   -1.8040 O.3     1  UNL1       -0.4810
      5  H          9.6650    0.7380   -2.2820 H       1  UNL1        0.2960
      6  C          6.7330    0.2600   -1.8740 C.3     1  UNL1        0.0470
      7  C          6.1330    0.5710   -0.5500 C.2     1  UNL1       -0.0470
      8  C          5.4550    1.7640   -0.3430 C.2     1  UNL1        0.0040
      9  C          6.2210   -0.2870    0.5310 C.2     1  UNL1        0.0040
     10  C          4.8980    2.0850    0.8740 C.2     1  UNL1        0.0000
     11  C          5.6620    0.0360    1.7490 C.2     1  UNL1        0.0000
     12  C          4.9930    1.2230    1.9470 C.2     1  UNL1        0.0000
@<TRIPOS>BOND
     1     3     2    2
     2     5     4    1
     3     2     1    1
     4     2     4    1
     5     1     6    1
     6     6     7    1
     7     7     8    2
     8     7     9    1
     9     8    10    1
    10     9    11    2
    11    10    12    2
    12    11    12    1
