@<TRIPOS>MOLECULE
/home/cewinharhar/GITHUB/reincatalyze/data/processed/docking_pred/2023-Apr-25-2248_maxeplen10_maxtrainstep1000_exh16_gamma099_lrac3e-4_lrcr1e-3/b3efa5aa79561967f2a1346927635c3d7bfec8a2_ligand_2.pdbqt
 12 12 0 0 0
SMALL
GASTEIGER

@<TRIPOS>ATOM
      1  C          8.0880    0.2570   -2.0440 C.3     1  UNL1        0.1270
      2  C          9.2870    0.3320   -1.1910 C.2     1  UNL1        0.3030
      3  O          9.3990   -0.4660   -0.2210 O.2     1  UNL1       -0.2520
      4  O         10.3110    1.2620   -1.4210 O.3     1  UNL1       -0.4810
      5  H         10.4600    1.5930   -2.3640 H       1  UNL1        0.2960
      6  C          6.9990   -0.6040   -1.4290 C.3     1  UNL1        0.0470
      7  C          6.2750    0.1350   -0.3620 C.2     1  UNL1       -0.0470
      8  C          6.1050   -0.4240    0.8960 C.2     1  UNL1        0.0040
      9  C          5.7310    1.3910   -0.5590 C.2     1  UNL1        0.0040
     10  C          5.4300    0.2300    1.9020 C.2     1  UNL1        0.0000
     11  C          5.0560    2.0460    0.4490 C.2     1  UNL1        0.0000
     12  C          4.8900    1.4830    1.6950 C.2     1  UNL1        0.0000
@<TRIPOS>BOND
     1     5     4    1
     2     1     6    1
     3     1     2    1
     4     6     7    1
     5     4     2    1
     6     2     3    2
     7     9     7    2
     8     9    11    1
     9     7     8    1
    10    11    12    2
    11     8    10    2
    12    12    10    1
