@<TRIPOS>MOLECULE
/home/cewinharhar/GITHUB/reincatalyze/data/processed/docking_pred/2023-Apr-25-2248_maxeplen10_maxtrainstep1000_exh16_gamma099_lrac3e-4_lrcr1e-3/b58c38953477011b0b30fd8623da0ee842eab33b_ligand_2.pdbqt
 12 12 0 0 0
SMALL
GASTEIGER

@<TRIPOS>ATOM
      1  C          8.4130   -0.6260   -2.1560 C.3     1  UNL1        0.1270
      2  C          8.4540   -1.8940   -2.9050 C.2     1  UNL1        0.3030
      3  O          9.5640   -2.4650   -3.0840 O.2     1  UNL1       -0.2520
      4  O          7.2970   -2.4920   -3.4260 O.3     1  UNL1       -0.4810
      5  H          7.2700   -2.7140   -4.4120 H       1  UNL1        0.2960
      6  C          7.0240   -0.0140   -2.1380 C.3     1  UNL1        0.0470
      7  C          6.4970    0.0710   -0.7510 C.2     1  UNL1       -0.0470
      8  C          6.6250   -1.0000    0.1220 C.2     1  UNL1        0.0040
      9  C          5.8540    1.1930   -0.2620 C.2     1  UNL1        0.0040
     10  C          6.1390   -0.9570    1.4080 C.2     1  UNL1        0.0000
     11  C          5.3670    1.2350    1.0270 C.2     1  UNL1        0.0000
     12  C          5.4970    0.1680    1.8860 C.2     1  UNL1        0.0000
@<TRIPOS>BOND
     1     5     4    1
     2     4     2    1
     3     3     2    2
     4     2     1    1
     5     1     6    1
     6     6     7    1
     7     7     9    2
     8     7     8    1
     9     9    11    1
    10     8    10    2
    11    11    12    2
    12    10    12    1
