@<TRIPOS>MOLECULE
/home/cewinharhar/GITHUB/reincatalyze/data/processed/docking_pred/2023-Apr-25-2248_maxeplen10_maxtrainstep1000_exh16_gamma099_lrac3e-4_lrcr1e-3/b58c38953477011b0b30fd8623da0ee842eab33b_ligand_2.pdbqt
 12 12 0 0 0
SMALL
GASTEIGER

@<TRIPOS>ATOM
      1  C          8.2300   -0.9600   -1.8360 C.3     1  UNL1        0.1270
      2  C          8.3800   -2.0270   -2.8420 C.2     1  UNL1        0.3030
      3  O          9.5310   -2.4760   -3.0900 O.2     1  UNL1       -0.2520
      4  O          7.2830   -2.5620   -3.5330 O.3     1  UNL1       -0.4810
      5  H          7.4450   -3.3170   -4.1850 H       1  UNL1        0.2960
      6  C          7.4800   -1.4340   -0.6040 C.3     1  UNL1        0.0470
      7  C          6.6100   -0.3570   -0.0630 C.2     1  UNL1       -0.0470
      8  C          6.2610    0.7320   -0.8480 C.2     1  UNL1        0.0040
      9  C          6.1170   -0.3720    1.2290 C.2     1  UNL1        0.0040
     10  C          5.4670    1.7510   -0.3730 C.2     1  UNL1        0.0000
     11  C          5.3210    0.6480    1.7030 C.2     1  UNL1        0.0000
     12  C          4.9800    1.7270    0.9190 C.2     1  UNL1        0.0000
@<TRIPOS>BOND
     1     5     4    1
     2     4     2    1
     3     3     2    2
     4     2     1    1
     5     1     6    1
     6     8    10    1
     7     8     7    2
     8     6     7    1
     9    10    12    2
    10     7     9    1
    11    12    11    1
    12     9    11    2
