@<TRIPOS>MOLECULE
/home/cewinharhar/GITHUB/reincatalyze/data/processed/docking_pred/2023-Apr-25-2248_maxeplen10_maxtrainstep1000_exh16_gamma099_lrac3e-4_lrcr1e-3/b58c38953477011b0b30fd8623da0ee842eab33b_ligand_2.pdbqt
 12 12 0 0 0
SMALL
GASTEIGER

@<TRIPOS>ATOM
      1  C          8.2330   -1.5940    0.9730 C.3     1  UNL1        0.1270
      2  C          8.5190   -2.8300    0.2220 C.2     1  UNL1        0.3030
      3  O          9.1440   -3.7630    0.7950 O.2     1  UNL1       -0.2520
      4  O          8.1180   -3.0050   -1.1100 O.3     1  UNL1       -0.4810
      5  H          8.2320   -3.9160   -1.5330 H       1  UNL1        0.2960
      6  C          6.7660   -1.4750    1.3450 C.3     1  UNL1        0.0470
      7  C          6.1850   -0.2100    0.8240 C.2     1  UNL1       -0.0470
      8  C          6.4270    0.1940   -0.4810 C.2     1  UNL1        0.0040
      9  C          5.3960    0.6240    1.5940 C.2     1  UNL1        0.0040
     10  C          5.9120    1.3650   -0.9900 C.2     1  UNL1        0.0000
     11  C          4.8820    1.7960    1.0830 C.2     1  UNL1        0.0000
     12  C          5.1270    2.1910   -0.2120 C.2     1  UNL1        0.0000
@<TRIPOS>BOND
     1     5     4    1
     2     4     2    1
     3    10     8    1
     4    10    12    2
     5     8     7    2
     6    12    11    1
     7     2     3    2
     8     2     1    1
     9     7     6    1
    10     7     9    1
    11     1     6    1
    12    11     9    2
