@<TRIPOS>MOLECULE
/home/cewinharhar/GITHUB/reincatalyze/data/processed/docking_pred/2023-Apr-25-2248_maxeplen10_maxtrainstep1000_exh16_gamma099_lrac3e-4_lrcr1e-3/b58c38953477011b0b30fd8623da0ee842eab33b_ligand_2.pdbqt
 12 12 0 0 0
SMALL
GASTEIGER

@<TRIPOS>ATOM
      1  C          4.9930    1.7730    0.7270 C.3     1  UNL1        0.1270
      2  C          4.4650    1.1040    1.9300 C.2     1  UNL1        0.3030
      3  O          5.1490    0.1960    2.4760 O.2     1  UNL1       -0.2520
      4  O          3.2260    1.4450    2.4920 O.3     1  UNL1       -0.4810
      5  H          3.1040    2.3770    2.8640 H       1  UNL1        0.2960
      6  C          6.5070    1.8840    0.7510 C.3     1  UNL1        0.0470
      7  C          7.1180    1.0690   -0.3320 C.2     1  UNL1       -0.0470
      8  C          8.4580    1.2180   -0.6600 C.2     1  UNL1        0.0040
      9  C          6.4010    0.1430   -1.0670 C.2     1  UNL1        0.0040
     10  C          9.0500    0.4870   -1.6630 C.2     1  UNL1        0.0000
     11  C          6.9950   -0.5880   -2.0730 C.2     1  UNL1        0.0000
     12  C          8.3250   -0.4340   -2.3920 C.2     1  UNL1        0.0000
@<TRIPOS>BOND
     1    12    11    2
     2    12    10    1
     3    11     9    1
     4    10     8    2
     5     9     7    2
     6     8     7    1
     7     7     6    1
     8     1     6    1
     9     1     2    1
    10     2     3    2
    11     2     4    1
    12     4     5    1
