@<TRIPOS>MOLECULE
/home/cewinharhar/GITHUB/reincatalyze/data/processed/docking_pred/2023-Apr-25-2248_maxeplen10_maxtrainstep1000_exh16_gamma099_lrac3e-4_lrcr1e-3/b590df4aad401e291154b1741be08749940afe84_ligand_2.pdbqt
 12 12 0 0 0
SMALL
GASTEIGER

@<TRIPOS>ATOM
      1  C          8.3110    0.0380   -2.1440 C.3     1  UNL1        0.1270
      2  C          9.4110    0.3000   -1.2000 C.2     1  UNL1        0.3030
      3  O          9.4810   -0.3770   -0.1380 O.2     1  UNL1       -0.2520
      4  O         10.3870    1.2770   -1.4410 O.3     1  UNL1       -0.4810
      5  H         10.2870    1.8700   -2.2550 H       1  UNL1        0.2960
      6  C          7.1610   -0.7100   -1.4930 C.3     1  UNL1        0.0470
      7  C          6.3800    0.1870   -0.6010 C.2     1  UNL1       -0.0470
      8  C          6.1130   -0.1770    0.7110 C.2     1  UNL1        0.0040
      9  C          5.8750    1.4040   -1.0210 C.2     1  UNL1        0.0040
     10  C          5.3840    0.6260    1.5570 C.2     1  UNL1        0.0000
     11  C          5.1440    2.2070   -0.1710 C.2     1  UNL1        0.0000
     12  C          4.8830    1.8390    1.1290 C.2     1  UNL1        0.0000
@<TRIPOS>BOND
     1     5     4    1
     2     1     6    1
     3     1     2    1
     4     6     7    1
     5     4     2    1
     6     2     3    2
     7     9     7    2
     8     9    11    1
     9     7     8    1
    10    11    12    2
    11     8    10    2
    12    12    10    1
