@<TRIPOS>MOLECULE
/home/cewinharhar/GITHUB/reincatalyze/data/processed/docking_pred/2023-Apr-25-2248_maxeplen10_maxtrainstep1000_exh16_gamma099_lrac3e-4_lrcr1e-3/b590df4aad401e291154b1741be08749940afe84_ligand_2.pdbqt
 12 12 0 0 0
SMALL
GASTEIGER

@<TRIPOS>ATOM
      1  C          8.4160   -0.6670   -2.1050 C.3     1  UNL1        0.1270
      2  C          8.4410   -1.9160   -2.8870 C.2     1  UNL1        0.3030
      3  O          9.5440   -2.4940   -3.0830 O.2     1  UNL1       -0.2520
      4  O          7.2760   -2.4860   -3.4220 O.3     1  UNL1       -0.4810
      5  H          6.8440   -3.2550   -2.9280 H       1  UNL1        0.2960
      6  C          7.0460   -0.0130   -2.1100 C.3     1  UNL1        0.0470
      7  C          6.4920    0.0720   -0.7330 C.2     1  UNL1       -0.0470
      8  C          5.8340    1.2170   -0.3050 C.2     1  UNL1        0.0040
      9  C          6.6040   -0.9560    0.1840 C.2     1  UNL1        0.0040
     10  C          5.3190    1.3310    0.9660 C.2     1  UNL1        0.0000
     11  C          6.0880   -0.8400    1.4570 C.2     1  UNL1        0.0000
     12  C          5.4380    0.2990    1.8750 C.2     1  UNL1        0.0000
@<TRIPOS>BOND
     1     4     5    1
     2     4     2    1
     3     3     2    2
     4     2     1    1
     5     6     1    1
     6     6     7    1
     7     7     8    2
     8     7     9    1
     9     8    10    1
    10     9    11    2
    11    10    12    2
    12    11    12    1
