@<TRIPOS>MOLECULE
/home/cewinharhar/GITHUB/reincatalyze/data/processed/docking_pred/2023-Apr-25-2248_maxeplen10_maxtrainstep1000_exh16_gamma099_lrac3e-4_lrcr1e-3/b590df4aad401e291154b1741be08749940afe84_ligand_2.pdbqt
 12 12 0 0 0
SMALL
GASTEIGER

@<TRIPOS>ATOM
      1  C          5.0420    1.7900    0.7550 C.3     1  UNL1        0.1270
      2  C          4.4720    1.1120    1.9340 C.2     1  UNL1        0.3030
      3  O          5.1250    0.1820    2.4800 O.2     1  UNL1       -0.2520
      4  O          3.2270    1.4680    2.4710 O.3     1  UNL1       -0.4810
      5  H          2.3980    1.0090    2.1160 H       1  UNL1        0.2960
      6  C          6.5590    1.8330    0.7960 C.3     1  UNL1        0.0470
      7  C          7.1440    1.0350   -0.3130 C.2     1  UNL1       -0.0470
      8  C          8.4650    1.2190   -0.6960 C.2     1  UNL1        0.0040
      9  C          6.4210    0.0910   -1.0190 C.2     1  UNL1        0.0040
     10  C          9.0330    0.5040   -1.7250 C.2     1  UNL1        0.0000
     11  C          6.9920   -0.6240   -2.0490 C.2     1  UNL1        0.0000
     12  C          8.3030   -0.4360   -2.4240 C.2     1  UNL1        0.0000
@<TRIPOS>BOND
     1    12    11    2
     2    12    10    1
     3    11     9    1
     4    10     8    2
     5     9     7    2
     6     8     7    1
     7     7     6    1
     8     1     6    1
     9     1     2    1
    10     2     4    1
    11     2     3    2
    12     5     4    1
