@<TRIPOS>MOLECULE
/home/cewinharhar/GITHUB/reincatalyze/data/processed/docking_pred/2023-Apr-25-2248_maxeplen10_maxtrainstep1000_exh16_gamma099_lrac3e-4_lrcr1e-3/b590df4aad401e291154b1741be08749940afe84_ligand_2.pdbqt
 12 12 0 0 0
SMALL
GASTEIGER

@<TRIPOS>ATOM
      1  C          8.1510   -1.7020    1.1990 C.3     1  UNL1        0.1270
      2  C          8.5110   -2.8580    0.3580 C.2     1  UNL1        0.3030
      3  O          9.2190   -3.7770    0.8510 O.2     1  UNL1       -0.2520
      4  O          8.0920   -2.9720   -0.9760 O.3     1  UNL1       -0.4810
      5  H          8.3930   -2.2700   -1.6380 H       1  UNL1        0.2960
      6  C          6.6510   -1.5860    1.4020 C.3     1  UNL1        0.0470
      7  C          6.1380   -0.3010    0.8600 C.2     1  UNL1       -0.0470
      8  C          6.4020    0.0700   -0.4510 C.2     1  UNL1        0.0040
      9  C          5.3930    0.5860    1.6150 C.2     1  UNL1        0.0040
     10  C          5.9500    1.2570   -0.9790 C.2     1  UNL1        0.0000
     11  C          4.9410    1.7750    1.0850 C.2     1  UNL1        0.0000
     12  C          5.2080    2.1360   -0.2170 C.2     1  UNL1        0.0000
@<TRIPOS>BOND
     1     5     4    1
     2    10     8    1
     3    10    12    2
     4     4     2    1
     5     8     7    2
     6    12    11    1
     7     2     3    2
     8     2     1    1
     9     7     6    1
    10     7     9    1
    11    11     9    2
    12     1     6    1
