MODEL 1
REMARK VINA RESULT:      -7.3      0.000      0.000
REMARK SMILES O=C(O)CCc1ccccc1
REMARK SMILES IDX 4 1 2 2 1 3 3 4 5 6 6 7 7 8 11 9 8 10 10 11 9 12
REMARK H PARENT 3 5
REMARK Flexibility Score: inf
ROOT
ATOM      1  C   UNL     1       8.416  -0.667  -2.105  1.00  0.00     0.127 C 
ENDROOT
BRANCH   1   2
ATOM      2  C   UNL     1       8.441  -1.916  -2.887  1.00  0.00     0.303 C 
ATOM      3  O   UNL     1       9.544  -2.494  -3.083  1.00  0.00    -0.252 OA
BRANCH   2   4
ATOM      4  O   UNL     1       7.276  -2.486  -3.422  1.00  0.00    -0.481 OA
ATOM      5  H   UNL     1       6.844  -3.255  -2.928  1.00  0.00     0.296 HD
ENDBRANCH   2   4
ENDBRANCH   1   2
BRANCH   1   6
ATOM      6  C   UNL     1       7.046  -0.013  -2.110  1.00  0.00     0.047 C 
BRANCH   6   7
ATOM      7  C   UNL     1       6.492   0.072  -0.733  1.00  0.00    -0.047 A 
ATOM      8  C   UNL     1       5.834   1.217  -0.305  1.00  0.00     0.004 A 
ATOM      9  C   UNL     1       6.604  -0.956   0.184  1.00  0.00     0.004 A 
ATOM     10  C   UNL     1       5.319   1.331   0.966  1.00  0.00     0.000 A 
ATOM     11  C   UNL     1       6.088  -0.840   1.457  1.00  0.00     0.000 A 
ATOM     12  C   UNL     1       5.438   0.299   1.875  1.00  0.00     0.000 A 
ENDBRANCH   6   7
ENDBRANCH   1   6
TORSDOF 4
ENDMDL
MODEL 2
REMARK VINA RESULT:      -7.3      0.096      1.724
REMARK SMILES O=C(O)CCc1ccccc1
REMARK SMILES IDX 4 1 2 2 1 3 3 4 5 6 6 7 7 8 11 9 8 10 10 11 9 12
REMARK H PARENT 3 5
REMARK Flexibility Score: inf
ROOT
ATOM      1  C   UNL     1       8.384  -0.684  -2.076  1.00  0.00     0.127 C 
ENDROOT
BRANCH   1   2
ATOM      2  C   UNL     1       8.387  -1.923  -2.875  1.00  0.00     0.303 C 
ATOM      3  O   UNL     1       7.287  -2.411  -3.251  1.00  0.00    -0.252 OA
BRANCH   2   4
ATOM      4  O   UNL     1       9.574  -2.579  -3.233  1.00  0.00    -0.481 OA
ATOM      5  H   UNL     1       9.688  -2.882  -4.191  1.00  0.00     0.296 HD
ENDBRANCH   2   4
ENDBRANCH   1   2
BRANCH   1   6
ATOM      6  C   UNL     1       7.038   0.018  -2.113  1.00  0.00     0.047 C 
BRANCH   6   7
ATOM      7  C   UNL     1       6.466   0.144  -0.747  1.00  0.00    -0.047 A 
ATOM      8  C   UNL     1       6.600  -0.885   0.174  1.00  0.00     0.004 A 
ATOM      9  C   UNL     1       5.771   1.263  -0.326  1.00  0.00     0.004 A 
ATOM     10  C   UNL     1       6.073  -0.804   1.442  1.00  0.00     0.000 A 
ATOM     11  C   UNL     1       5.244   1.343   0.944  1.00  0.00     0.000 A 
ATOM     12  C   UNL     1       5.380   0.317   1.852  1.00  0.00     0.000 A 
ENDBRANCH   6   7
ENDBRANCH   1   6
TORSDOF 4
ENDMDL
MODEL 3
REMARK VINA RESULT:      -6.8      3.389      5.077
REMARK SMILES O=C(O)CCc1ccccc1
REMARK SMILES IDX 4 1 2 2 1 3 3 4 5 6 6 7 7 8 11 9 8 10 10 11 9 12
REMARK H PARENT 3 5
REMARK Flexibility Score: inf
ROOT
ATOM      1  C   UNL     1       5.042   1.790   0.755  1.00  0.00     0.127 C 
ENDROOT
BRANCH   1   2
ATOM      2  C   UNL     1       4.472   1.112   1.934  1.00  0.00     0.303 C 
ATOM      3  O   UNL     1       5.125   0.182   2.480  1.00  0.00    -0.252 OA
BRANCH   2   4
ATOM      4  O   UNL     1       3.227   1.468   2.471  1.00  0.00    -0.481 OA
ATOM      5  H   UNL     1       2.398   1.009   2.116  1.00  0.00     0.296 HD
ENDBRANCH   2   4
ENDBRANCH   1   2
BRANCH   1   6
ATOM      6  C   UNL     1       6.559   1.833   0.796  1.00  0.00     0.047 C 
BRANCH   6   7
ATOM      7  C   UNL     1       7.144   1.035  -0.313  1.00  0.00    -0.047 A 
ATOM      8  C   UNL     1       8.465   1.219  -0.696  1.00  0.00     0.004 A 
ATOM      9  C   UNL     1       6.421   0.091  -1.019  1.00  0.00     0.004 A 
ATOM     10  C   UNL     1       9.033   0.504  -1.725  1.00  0.00     0.000 A 
ATOM     11  C   UNL     1       6.992  -0.624  -2.049  1.00  0.00     0.000 A 
ATOM     12  C   UNL     1       8.303  -0.436  -2.424  1.00  0.00     0.000 A 
ENDBRANCH   6   7
ENDBRANCH   1   6
TORSDOF 4
ENDMDL
MODEL 4
REMARK VINA RESULT:      -6.6      1.964      2.672
REMARK SMILES O=C(O)CCc1ccccc1
REMARK SMILES IDX 4 1 2 2 1 3 3 4 5 6 6 7 7 8 11 9 8 10 10 11 9 12
REMARK H PARENT 3 5
REMARK Flexibility Score: inf
ROOT
ATOM      1  C   UNL     1       8.311   0.038  -2.144  1.00  0.00     0.127 C 
ENDROOT
BRANCH   1   2
ATOM      2  C   UNL     1       9.411   0.300  -1.200  1.00  0.00     0.303 C 
ATOM      3  O   UNL     1       9.481  -0.377  -0.138  1.00  0.00    -0.252 OA
BRANCH   2   4
ATOM      4  O   UNL     1      10.387   1.277  -1.441  1.00  0.00    -0.481 OA
ATOM      5  H   UNL     1      10.287   1.870  -2.255  1.00  0.00     0.296 HD
ENDBRANCH   2   4
ENDBRANCH   1   2
BRANCH   1   6
ATOM      6  C   UNL     1       7.161  -0.710  -1.493  1.00  0.00     0.047 C 
BRANCH   6   7
ATOM      7  C   UNL     1       6.380   0.187  -0.601  1.00  0.00    -0.047 A 
ATOM      8  C   UNL     1       6.113  -0.177   0.711  1.00  0.00     0.004 A 
ATOM      9  C   UNL     1       5.875   1.404  -1.021  1.00  0.00     0.004 A 
ATOM     10  C   UNL     1       5.384   0.626   1.557  1.00  0.00     0.000 A 
ATOM     11  C   UNL     1       5.144   2.207  -0.171  1.00  0.00     0.000 A 
ATOM     12  C   UNL     1       4.883   1.839   1.129  1.00  0.00     0.000 A 
ENDBRANCH   6   7
ENDBRANCH   1   6
TORSDOF 4
ENDMDL
MODEL 5
REMARK VINA RESULT:      -6.6      1.885      2.911
REMARK SMILES O=C(O)CCc1ccccc1
REMARK SMILES IDX 4 1 2 2 1 3 3 4 5 6 6 7 7 8 11 9 8 10 10 11 9 12
REMARK H PARENT 3 5
REMARK Flexibility Score: inf
ROOT
ATOM      1  C   UNL     1       8.151  -1.702   1.199  1.00  0.00     0.127 C 
ENDROOT
BRANCH   1   2
ATOM      2  C   UNL     1       8.511  -2.858   0.358  1.00  0.00     0.303 C 
ATOM      3  O   UNL     1       9.219  -3.777   0.851  1.00  0.00    -0.252 OA
BRANCH   2   4
ATOM      4  O   UNL     1       8.092  -2.972  -0.976  1.00  0.00    -0.481 OA
ATOM      5  H   UNL     1       8.393  -2.270  -1.638  1.00  0.00     0.296 HD
ENDBRANCH   2   4
ENDBRANCH   1   2
BRANCH   1   6
ATOM      6  C   UNL     1       6.651  -1.586   1.402  1.00  0.00     0.047 C 
BRANCH   6   7
ATOM      7  C   UNL     1       6.138  -0.301   0.860  1.00  0.00    -0.047 A 
ATOM      8  C   UNL     1       6.402   0.070  -0.451  1.00  0.00     0.004 A 
ATOM      9  C   UNL     1       5.393   0.586   1.615  1.00  0.00     0.004 A 
ATOM     10  C   UNL     1       5.950   1.257  -0.979  1.00  0.00     0.000 A 
ATOM     11  C   UNL     1       4.941   1.775   1.085  1.00  0.00     0.000 A 
ATOM     12  C   UNL     1       5.208   2.136  -0.217  1.00  0.00     0.000 A 
ENDBRANCH   6   7
ENDBRANCH   1   6
TORSDOF 4
ENDMDL
