@<TRIPOS>MOLECULE
/home/cewinharhar/GITHUB/reincatalyze/data/processed/docking_pred/2023-Apr-25-2248_maxeplen10_maxtrainstep1000_exh16_gamma099_lrac3e-4_lrcr1e-3/b590df4aad401e291154b1741be08749940afe84_ligand_2.pdbqt
 12 12 0 0 0
SMALL
GASTEIGER

@<TRIPOS>ATOM
      1  C          8.3840   -0.6840   -2.0760 C.3     1  UNL1        0.1270
      2  C          8.3870   -1.9230   -2.8750 C.2     1  UNL1        0.3030
      3  O          7.2870   -2.4110   -3.2510 O.2     1  UNL1       -0.2520
      4  O          9.5740   -2.5790   -3.2330 O.3     1  UNL1       -0.4810
      5  H          9.6880   -2.8820   -4.1910 H       1  UNL1        0.2960
      6  C          7.0380    0.0180   -2.1130 C.3     1  UNL1        0.0470
      7  C          6.4660    0.1440   -0.7470 C.2     1  UNL1       -0.0470
      8  C          6.6000   -0.8850    0.1740 C.2     1  UNL1        0.0040
      9  C          5.7710    1.2630   -0.3260 C.2     1  UNL1        0.0040
     10  C          6.0730   -0.8040    1.4420 C.2     1  UNL1        0.0000
     11  C          5.2440    1.3430    0.9440 C.2     1  UNL1        0.0000
     12  C          5.3800    0.3170    1.8520 C.2     1  UNL1        0.0000
@<TRIPOS>BOND
     1     5     4    1
     2     3     2    2
     3     4     2    1
     4     2     1    1
     5     6     1    1
     6     6     7    1
     7     7     9    2
     8     7     8    1
     9     9    11    1
    10     8    10    2
    11    11    12    2
    12    10    12    1
