@<TRIPOS>MOLECULE
/home/cewinharhar/GITHUB/reincatalyze/data/processed/docking_pred/2023-Apr-25-2248_maxeplen10_maxtrainstep1000_exh16_gamma099_lrac3e-4_lrcr1e-3/b5f7d4a2d914252a6bbd971338c7ac1ea6a3e46f_ligand_2.pdbqt
 12 12 0 0 0
SMALL
GASTEIGER

@<TRIPOS>ATOM
      1  C          8.4340   -0.6690   -2.1290 C.3     1  UNL1        0.1270
      2  C          8.4580   -1.9240   -2.9010 C.2     1  UNL1        0.3030
      3  O          9.5610   -2.5050   -3.0920 O.2     1  UNL1       -0.2520
      4  O          7.2940   -2.4980   -3.4320 O.3     1  UNL1       -0.4810
      5  H          6.4050   -2.2670   -3.0100 H       1  UNL1        0.2960
      6  C          7.0630   -0.0160   -2.1380 C.3     1  UNL1        0.0470
      7  C          6.5030    0.0670   -0.7640 C.2     1  UNL1       -0.0470
      8  C          5.8460    1.2110   -0.3350 C.2     1  UNL1        0.0040
      9  C          6.6090   -0.9650    0.1510 C.2     1  UNL1        0.0040
     10  C          5.3260    1.3230    0.9340 C.2     1  UNL1        0.0000
     11  C          6.0880   -0.8520    1.4210 C.2     1  UNL1        0.0000
     12  C          5.4390    0.2880    1.8400 C.2     1  UNL1        0.0000
@<TRIPOS>BOND
     1     4     5    1
     2     4     2    1
     3     3     2    2
     4     2     1    1
     5     6     1    1
     6     6     7    1
     7     7     8    2
     8     7     9    1
     9     8    10    1
    10     9    11    2
    11    10    12    2
    12    11    12    1
