@<TRIPOS>MOLECULE
/home/cewinharhar/GITHUB/reincatalyze/data/processed/docking_pred/2023-Apr-25-2248_maxeplen10_maxtrainstep1000_exh16_gamma099_lrac3e-4_lrcr1e-3/b5f7d4a2d914252a6bbd971338c7ac1ea6a3e46f_ligand_2.pdbqt
 12 12 0 0 0
SMALL
GASTEIGER

@<TRIPOS>ATOM
      1  C          8.2350   -1.6590    1.0770 C.3     1  UNL1        0.1270
      2  C          8.5370   -2.8670    0.2880 C.2     1  UNL1        0.3030
      3  O          9.1910   -3.8010    0.8260 O.2     1  UNL1       -0.2520
      4  O          8.1210   -3.0140   -1.0420 O.3     1  UNL1       -0.4810
      5  H          7.1910   -2.7090   -1.2950 H       1  UNL1        0.2960
      6  C          6.7560   -1.5390    1.3980 C.3     1  UNL1        0.0470
      7  C          6.1940   -0.2740    0.8570 C.2     1  UNL1       -0.0470
      8  C          6.4440    0.1070   -0.4540 C.2     1  UNL1        0.0040
      9  C          5.4150    0.5830    1.6120 C.2     1  UNL1        0.0040
     10  C          5.9470    1.2770   -0.9820 C.2     1  UNL1        0.0000
     11  C          4.9170    1.7540    1.0820 C.2     1  UNL1        0.0000
     12  C          5.1710    2.1260   -0.2190 C.2     1  UNL1        0.0000
@<TRIPOS>BOND
     1     5     4    1
     2     4     2    1
     3    10     8    1
     4    10    12    2
     5     8     7    2
     6    12    11    1
     7     2     3    2
     8     2     1    1
     9     7     6    1
    10     7     9    1
    11     1     6    1
    12    11     9    2
