MODEL 1
REMARK VINA RESULT:      -7.4      0.000      0.000
REMARK SMILES O=C(O)CCc1ccccc1
REMARK SMILES IDX 4 1 2 2 1 3 3 4 5 6 6 7 7 8 11 9 8 10 10 11 9 12
REMARK H PARENT 3 5
REMARK Flexibility Score: inf
ROOT
ATOM      1  C   UNL     1       8.434  -0.669  -2.129  1.00  0.00     0.127 C 
ENDROOT
BRANCH   1   2
ATOM      2  C   UNL     1       8.458  -1.924  -2.901  1.00  0.00     0.303 C 
ATOM      3  O   UNL     1       9.561  -2.505  -3.092  1.00  0.00    -0.252 OA
BRANCH   2   4
ATOM      4  O   UNL     1       7.294  -2.498  -3.432  1.00  0.00    -0.481 OA
ATOM      5  H   UNL     1       6.405  -2.267  -3.010  1.00  0.00     0.296 HD
ENDBRANCH   2   4
ENDBRANCH   1   2
BRANCH   1   6
ATOM      6  C   UNL     1       7.063  -0.016  -2.138  1.00  0.00     0.047 C 
BRANCH   6   7
ATOM      7  C   UNL     1       6.503   0.067  -0.764  1.00  0.00    -0.047 A 
ATOM      8  C   UNL     1       5.846   1.211  -0.335  1.00  0.00     0.004 A 
ATOM      9  C   UNL     1       6.609  -0.965   0.151  1.00  0.00     0.004 A 
ATOM     10  C   UNL     1       5.326   1.323   0.934  1.00  0.00     0.000 A 
ATOM     11  C   UNL     1       6.088  -0.852   1.421  1.00  0.00     0.000 A 
ATOM     12  C   UNL     1       5.439   0.288   1.840  1.00  0.00     0.000 A 
ENDBRANCH   6   7
ENDBRANCH   1   6
TORSDOF 4
ENDMDL
MODEL 2
REMARK VINA RESULT:      -7.3      0.131      1.725
REMARK SMILES O=C(O)CCc1ccccc1
REMARK SMILES IDX 4 1 2 2 1 3 3 4 5 6 6 7 7 8 11 9 8 10 10 11 9 12
REMARK H PARENT 3 5
REMARK Flexibility Score: inf
ROOT
ATOM      1  C   UNL     1       8.418  -0.744  -2.009  1.00  0.00     0.127 C 
ENDROOT
BRANCH   1   2
ATOM      2  C   UNL     1       8.412  -1.945  -2.864  1.00  0.00     0.303 C 
ATOM      3  O   UNL     1       7.308  -2.428  -3.233  1.00  0.00    -0.252 OA
BRANCH   2   4
ATOM      4  O   UNL     1       9.595  -2.570  -3.282  1.00  0.00    -0.481 OA
ATOM      5  H   UNL     1      10.462  -2.322  -2.824  1.00  0.00     0.296 HD
ENDBRANCH   2   4
ENDBRANCH   1   2
BRANCH   1   6
ATOM      6  C   UNL     1       7.107   0.019  -2.083  1.00  0.00     0.047 C 
BRANCH   6   7
ATOM      7  C   UNL     1       6.497   0.161  -0.735  1.00  0.00    -0.047 A 
ATOM      8  C   UNL     1       6.596  -0.861   0.198  1.00  0.00     0.004 A 
ATOM      9  C   UNL     1       5.801   1.290  -0.344  1.00  0.00     0.004 A 
ATOM     10  C   UNL     1       6.034  -0.764   1.450  1.00  0.00     0.000 A 
ATOM     11  C   UNL     1       5.239   1.386   0.911  1.00  0.00     0.000 A 
ATOM     12  C   UNL     1       5.340   0.367   1.831  1.00  0.00     0.000 A 
ENDBRANCH   6   7
ENDBRANCH   1   6
TORSDOF 4
ENDMDL
MODEL 3
REMARK VINA RESULT:      -6.8      3.397      5.091
REMARK SMILES O=C(O)CCc1ccccc1
REMARK SMILES IDX 4 1 2 2 1 3 3 4 5 6 6 7 7 8 11 9 8 10 10 11 9 12
REMARK H PARENT 3 5
REMARK Flexibility Score: inf
ROOT
ATOM      1  C   UNL     1       4.981   1.797   0.701  1.00  0.00     0.127 C 
ENDROOT
BRANCH   1   2
ATOM      2  C   UNL     1       4.476   1.126   1.912  1.00  0.00     0.303 C 
ATOM      3  O   UNL     1       5.181   0.235   2.457  1.00  0.00    -0.252 OA
BRANCH   2   4
ATOM      4  O   UNL     1       3.235   1.447   2.482  1.00  0.00    -0.481 OA
ATOM      5  H   UNL     1       2.961   0.981   3.336  1.00  0.00     0.296 HD
ENDBRANCH   2   4
ENDBRANCH   1   2
BRANCH   1   6
ATOM      6  C   UNL     1       6.490   1.964   0.725  1.00  0.00     0.047 C 
BRANCH   6   7
ATOM      7  C   UNL     1       7.132   1.160  -0.347  1.00  0.00    -0.047 A 
ATOM      8  C   UNL     1       6.383   0.286  -1.122  1.00  0.00     0.004 A 
ATOM      9  C   UNL     1       8.486   1.226  -0.623  1.00  0.00     0.004 A 
ATOM     10  C   UNL     1       6.949  -0.480  -2.115  1.00  0.00     0.000 A 
ATOM     11  C   UNL     1       9.052   0.458  -1.618  1.00  0.00     0.000 A 
ATOM     12  C   UNL     1       8.302  -0.407  -2.381  1.00  0.00     0.000 A 
ENDBRANCH   6   7
ENDBRANCH   1   6
TORSDOF 4
ENDMDL
MODEL 4
REMARK VINA RESULT:      -6.6      1.882      2.885
REMARK SMILES O=C(O)CCc1ccccc1
REMARK SMILES IDX 4 1 2 2 1 3 3 4 5 6 6 7 7 8 11 9 8 10 10 11 9 12
REMARK H PARENT 3 5
REMARK Flexibility Score: inf
ROOT
ATOM      1  C   UNL     1       8.235  -1.659   1.077  1.00  0.00     0.127 C 
ENDROOT
BRANCH   1   2
ATOM      2  C   UNL     1       8.537  -2.867   0.288  1.00  0.00     0.303 C 
ATOM      3  O   UNL     1       9.191  -3.801   0.826  1.00  0.00    -0.252 OA
BRANCH   2   4
ATOM      4  O   UNL     1       8.121  -3.014  -1.042  1.00  0.00    -0.481 OA
ATOM      5  H   UNL     1       7.191  -2.709  -1.295  1.00  0.00     0.296 HD
ENDBRANCH   2   4
ENDBRANCH   1   2
BRANCH   1   6
ATOM      6  C   UNL     1       6.756  -1.539   1.398  1.00  0.00     0.047 C 
BRANCH   6   7
ATOM      7  C   UNL     1       6.194  -0.274   0.857  1.00  0.00    -0.047 A 
ATOM      8  C   UNL     1       6.444   0.107  -0.454  1.00  0.00     0.004 A 
ATOM      9  C   UNL     1       5.415   0.583   1.612  1.00  0.00     0.004 A 
ATOM     10  C   UNL     1       5.947   1.277  -0.982  1.00  0.00     0.000 A 
ATOM     11  C   UNL     1       4.917   1.754   1.082  1.00  0.00     0.000 A 
ATOM     12  C   UNL     1       5.171   2.126  -0.219  1.00  0.00     0.000 A 
ENDBRANCH   6   7
ENDBRANCH   1   6
TORSDOF 4
ENDMDL
MODEL 5
REMARK VINA RESULT:      -6.5      2.066      2.385
REMARK SMILES O=C(O)CCc1ccccc1
REMARK SMILES IDX 4 1 2 2 1 3 3 4 5 6 6 7 7 8 11 9 8 10 10 11 9 12
REMARK H PARENT 3 5
REMARK Flexibility Score: inf
ROOT
ATOM      1  C   UNL     1       8.514   0.648  -1.683  1.00  0.00     0.127 C 
ENDROOT
BRANCH   1   2
ATOM      2  C   UNL     1       9.665   0.284  -0.838  1.00  0.00     0.303 C 
ATOM      3  O   UNL     1       9.491  -0.512   0.124  1.00  0.00    -0.252 OA
BRANCH   2   4
ATOM      4  O   UNL     1      10.952   0.791  -1.069  1.00  0.00    -0.481 OA
ATOM      5  H   UNL     1      11.714   0.457  -0.494  1.00  0.00     0.296 HD
ENDBRANCH   2   4
ENDBRANCH   1   2
BRANCH   1   6
ATOM      6  C   UNL     1       7.323  -0.266  -1.456  1.00  0.00     0.047 C 
BRANCH   6   7
ATOM      7  C   UNL     1       6.434   0.271  -0.393  1.00  0.00    -0.047 A 
ATOM      8  C   UNL     1       5.800   1.495  -0.553  1.00  0.00     0.004 A 
ATOM      9  C   UNL     1       6.201  -0.396   0.796  1.00  0.00     0.004 A 
ATOM     10  C   UNL     1       4.980   2.025   0.417  1.00  0.00     0.000 A 
ATOM     11  C   UNL     1       5.378   0.136   1.766  1.00  0.00     0.000 A 
ATOM     12  C   UNL     1       4.754   1.351   1.600  1.00  0.00     0.000 A 
ENDBRANCH   6   7
ENDBRANCH   1   6
TORSDOF 4
ENDMDL
