@<TRIPOS>MOLECULE
/home/cewinharhar/GITHUB/reincatalyze/data/processed/docking_pred/2023-Apr-25-2248_maxeplen10_maxtrainstep1000_exh16_gamma099_lrac3e-4_lrcr1e-3/b5f7d4a2d914252a6bbd971338c7ac1ea6a3e46f_ligand_2.pdbqt
 12 12 0 0 0
SMALL
GASTEIGER

@<TRIPOS>ATOM
      1  C          8.5140    0.6480   -1.6830 C.3     1  UNL1        0.1270
      2  C          9.6650    0.2840   -0.8380 C.2     1  UNL1        0.3030
      3  O          9.4910   -0.5120    0.1240 O.2     1  UNL1       -0.2520
      4  O         10.9520    0.7910   -1.0690 O.3     1  UNL1       -0.4810
      5  H         11.7140    0.4570   -0.4940 H       1  UNL1        0.2960
      6  C          7.3230   -0.2660   -1.4560 C.3     1  UNL1        0.0470
      7  C          6.4340    0.2710   -0.3930 C.2     1  UNL1       -0.0470
      8  C          5.8000    1.4950   -0.5530 C.2     1  UNL1        0.0040
      9  C          6.2010   -0.3960    0.7960 C.2     1  UNL1        0.0040
     10  C          4.9800    2.0250    0.4170 C.2     1  UNL1        0.0000
     11  C          5.3780    0.1360    1.7660 C.2     1  UNL1        0.0000
     12  C          4.7540    1.3510    1.6000 C.2     1  UNL1        0.0000
@<TRIPOS>BOND
     1     1     6    1
     2     1     2    1
     3     6     7    1
     4     4     2    1
     5     4     5    1
     6     2     3    2
     7     8     7    2
     8     8    10    1
     9     7     9    1
    10    10    12    2
    11     9    11    2
    12    12    11    1
