@<TRIPOS>MOLECULE
/home/cewinharhar/GITHUB/reincatalyze/data/processed/docking_pred/2023-Apr-25-2248_maxeplen10_maxtrainstep1000_exh16_gamma099_lrac3e-4_lrcr1e-3/b5f7d4a2d914252a6bbd971338c7ac1ea6a3e46f_ligand_2.pdbqt
 12 12 0 0 0
SMALL
GASTEIGER

@<TRIPOS>ATOM
      1  C          4.9810    1.7970    0.7010 C.3     1  UNL1        0.1270
      2  C          4.4760    1.1260    1.9120 C.2     1  UNL1        0.3030
      3  O          5.1810    0.2350    2.4570 O.2     1  UNL1       -0.2520
      4  O          3.2350    1.4470    2.4820 O.3     1  UNL1       -0.4810
      5  H          2.9610    0.9810    3.3360 H       1  UNL1        0.2960
      6  C          6.4900    1.9640    0.7250 C.3     1  UNL1        0.0470
      7  C          7.1320    1.1600   -0.3470 C.2     1  UNL1       -0.0470
      8  C          6.3830    0.2860   -1.1220 C.2     1  UNL1        0.0040
      9  C          8.4860    1.2260   -0.6230 C.2     1  UNL1        0.0040
     10  C          6.9490   -0.4800   -2.1150 C.2     1  UNL1        0.0000
     11  C          9.0520    0.4580   -1.6180 C.2     1  UNL1        0.0000
     12  C          8.3020   -0.4070   -2.3810 C.2     1  UNL1        0.0000
@<TRIPOS>BOND
     1    12    10    2
     2    12    11    1
     3    10     8    1
     4    11     9    2
     5     8     7    2
     6     9     7    1
     7     7     6    1
     8     1     6    1
     9     1     2    1
    10     2     3    2
    11     2     4    1
    12     4     5    1
