@<TRIPOS>MOLECULE
/home/cewinharhar/GITHUB/reincatalyze/data/processed/docking_pred/2023-Apr-25-2248_maxeplen10_maxtrainstep1000_exh16_gamma099_lrac3e-4_lrcr1e-3/b5f7d4a2d914252a6bbd971338c7ac1ea6a3e46f_ligand_2.pdbqt
 12 12 0 0 0
SMALL
GASTEIGER

@<TRIPOS>ATOM
      1  C          8.4180   -0.7440   -2.0090 C.3     1  UNL1        0.1270
      2  C          8.4120   -1.9450   -2.8640 C.2     1  UNL1        0.3030
      3  O          7.3080   -2.4280   -3.2330 O.2     1  UNL1       -0.2520
      4  O          9.5950   -2.5700   -3.2820 O.3     1  UNL1       -0.4810
      5  H         10.4620   -2.3220   -2.8240 H       1  UNL1        0.2960
      6  C          7.1070    0.0190   -2.0830 C.3     1  UNL1        0.0470
      7  C          6.4970    0.1610   -0.7350 C.2     1  UNL1       -0.0470
      8  C          6.5960   -0.8610    0.1980 C.2     1  UNL1        0.0040
      9  C          5.8010    1.2900   -0.3440 C.2     1  UNL1        0.0040
     10  C          6.0340   -0.7640    1.4500 C.2     1  UNL1        0.0000
     11  C          5.2390    1.3860    0.9110 C.2     1  UNL1        0.0000
     12  C          5.3400    0.3670    1.8310 C.2     1  UNL1        0.0000
@<TRIPOS>BOND
     1     4     2    1
     2     4     5    1
     3     3     2    2
     4     2     1    1
     5     6     1    1
     6     6     7    1
     7     7     9    2
     8     7     8    1
     9     9    11    1
    10     8    10    2
    11    11    12    2
    12    10    12    1
