@<TRIPOS>MOLECULE
/home/cewinharhar/GITHUB/reincatalyze/data/processed/docking_pred/2023-Apr-25-2248_maxeplen10_maxtrainstep1000_exh16_gamma099_lrac3e-4_lrcr1e-3/b658f69152bbaa0d4df6d0fc1d77222c9f34aa3c_ligand_2.pdbqt
 12 12 0 0 0
SMALL
GASTEIGER

@<TRIPOS>ATOM
      1  C          8.3140   -0.8900   -1.8850 C.3     1  UNL1        0.1270
      2  C          8.4060   -1.9920   -2.8590 C.2     1  UNL1        0.3030
      3  O          9.5280   -2.5260   -3.0740 O.2     1  UNL1       -0.2520
      4  O          7.2870   -2.4710   -3.5560 O.3     1  UNL1       -0.4810
      5  H          6.7300   -3.2010   -3.1330 H       1  UNL1        0.2960
      6  C          7.6910   -1.3340   -0.5740 C.3     1  UNL1        0.0470
      7  C          6.7570   -0.3030   -0.0510 C.2     1  UNL1       -0.0470
      8  C          6.2350   -0.4050    1.2300 C.2     1  UNL1        0.0040
      9  C          6.3550    0.7890   -0.7980 C.2     1  UNL1        0.0040
     10  C          5.3610    0.5270    1.7390 C.2     1  UNL1        0.0000
     11  C          5.4780    1.7220   -0.2870 C.2     1  UNL1        0.0000
     12  C          4.9640    1.6130    0.9850 C.2     1  UNL1        0.0000
@<TRIPOS>BOND
     1     4     5    1
     2     4     2    1
     3     3     2    2
     4     2     1    1
     5     1     6    1
     6     9    11    1
     7     9     7    2
     8     6     7    1
     9    11    12    2
    10     7     8    1
    11    12    10    1
    12     8    10    2
