@<TRIPOS>MOLECULE
/home/cewinharhar/GITHUB/reincatalyze/data/processed/docking_pred/2023-Apr-25-2248_maxeplen10_maxtrainstep1000_exh16_gamma099_lrac3e-4_lrcr1e-3/b658f69152bbaa0d4df6d0fc1d77222c9f34aa3c_ligand_2.pdbqt
 12 12 0 0 0
SMALL
GASTEIGER

@<TRIPOS>ATOM
      1  C          8.3080    0.0070   -2.1500 C.3     1  UNL1        0.1270
      2  C          9.3980    0.2860   -1.1970 C.2     1  UNL1        0.3030
      3  O          9.4820   -0.4020   -0.1440 O.2     1  UNL1       -0.2520
      4  O         10.3480    1.2930   -1.4220 O.3     1  UNL1       -0.4810
      5  H         10.2680    2.1570   -0.9040 H       1  UNL1        0.2960
      6  C          7.1520   -0.7300   -1.4980 C.3     1  UNL1        0.0470
      7  C          6.3740    0.1760   -0.6130 C.2     1  UNL1       -0.0470
      8  C          6.1030   -0.1790    0.7000 C.2     1  UNL1        0.0040
      9  C          5.8770    1.3940   -1.0390 C.2     1  UNL1        0.0040
     10  C          5.3770    0.6320    1.5420 C.2     1  UNL1        0.0000
     11  C          5.1510    2.2060   -0.1950 C.2     1  UNL1        0.0000
     12  C          4.8850    1.8460    1.1060 C.2     1  UNL1        0.0000
@<TRIPOS>BOND
     1     1     6    1
     2     1     2    1
     3     6     7    1
     4     4     2    1
     5     4     5    1
     6     2     3    2
     7     9     7    2
     8     9    11    1
     9     7     8    1
    10    11    12    2
    11     8    10    2
    12    12    10    1
