@<TRIPOS>MOLECULE
/home/cewinharhar/GITHUB/reincatalyze/data/processed/docking_pred/2023-Apr-25-2248_maxeplen10_maxtrainstep1000_exh16_gamma099_lrac3e-4_lrcr1e-3/b658f69152bbaa0d4df6d0fc1d77222c9f34aa3c_ligand_2.pdbqt
 12 12 0 0 0
SMALL
GASTEIGER

@<TRIPOS>ATOM
      1  C          4.9960    1.7440    0.7030 C.3     1  UNL1        0.1270
      2  C          4.4690    1.0970    1.9180 C.2     1  UNL1        0.3030
      3  O          5.1500    0.1930    2.4740 O.2     1  UNL1       -0.2520
      4  O          3.2350    1.4520    2.4800 O.3     1  UNL1       -0.4810
      5  H          2.6510    0.7220    2.8660 H       1  UNL1        0.2960
      6  C          6.5060    1.8940    0.7410 C.3     1  UNL1        0.0470
      7  C          7.1480    1.0980   -0.3380 C.2     1  UNL1       -0.0470
      8  C          6.4130    0.1770   -1.0700 C.2     1  UNL1        0.0040
      9  C          8.4870    1.2190   -0.6610 C.2     1  UNL1        0.0040
     10  C          6.9800   -0.5820   -2.0680 C.2     1  UNL1        0.0000
     11  C          9.0530    0.4580   -1.6610 C.2     1  UNL1        0.0000
     12  C          8.3180   -0.4550   -2.3820 C.2     1  UNL1        0.0000
@<TRIPOS>BOND
     1    12    10    2
     2    12    11    1
     3    10     8    1
     4    11     9    2
     5     8     7    2
     6     9     7    1
     7     7     6    1
     8     1     6    1
     9     1     2    1
    10     2     3    2
    11     2     4    1
    12     4     5    1
