@<TRIPOS>MOLECULE
/home/cewinharhar/GITHUB/reincatalyze/data/processed/docking_pred/2023-Apr-25-2248_maxeplen10_maxtrainstep1000_exh16_gamma099_lrac3e-4_lrcr1e-3/b658f69152bbaa0d4df6d0fc1d77222c9f34aa3c_ligand_2.pdbqt
 12 12 0 0 0
SMALL
GASTEIGER

@<TRIPOS>ATOM
      1  C          8.3970   -0.6030   -2.2080 C.3     1  UNL1        0.1270
      2  C          8.4340   -1.8930   -2.9200 C.2     1  UNL1        0.3030
      3  O          9.5410   -2.4770   -3.0710 O.2     1  UNL1       -0.2520
      4  O          7.2770   -2.4970   -3.4340 O.3     1  UNL1       -0.4810
      5  H          7.3410   -3.4430   -3.7860 H       1  UNL1        0.2960
      6  C          7.0020   -0.0050   -2.1760 C.3     1  UNL1        0.0470
      7  C          6.4750    0.0460   -0.7870 C.2     1  UNL1       -0.0470
      8  C          5.8250    1.1780   -0.3180 C.2     1  UNL1        0.0040
      9  C          6.6090   -1.0040    0.1030 C.2     1  UNL1        0.0040
     10  C          5.3350    1.2610    0.9650 C.2     1  UNL1        0.0000
     11  C          6.1180   -0.9200    1.3880 C.2     1  UNL1        0.0000
     12  C          5.4750    0.2070    1.8460 C.2     1  UNL1        0.0000
@<TRIPOS>BOND
     1     5     4    1
     2     4     2    1
     3     3     2    2
     4     2     1    1
     5     1     6    1
     6     6     7    1
     7     7     8    2
     8     7     9    1
     9     8    10    1
    10     9    11    2
    11    10    12    2
    12    11    12    1
