MODEL 1
REMARK VINA RESULT:      -7.3      0.000      0.000
REMARK SMILES O=C(O)CCc1ccccc1
REMARK SMILES IDX 4 1 2 2 1 3 3 4 5 6 6 7 7 8 11 9 8 10 10 11 9 12
REMARK H PARENT 3 5
REMARK Flexibility Score: inf
ROOT
ATOM      1  C   UNL     1       8.419  -0.658  -2.127  1.00  0.00     0.127 C 
ENDROOT
BRANCH   1   2
ATOM      2  C   UNL     1       8.456  -1.915  -2.895  1.00  0.00     0.303 C 
ATOM      3  O   UNL     1       9.565  -2.486  -3.082  1.00  0.00    -0.252 OA
BRANCH   2   4
ATOM      4  O   UNL     1       7.298  -2.502  -3.426  1.00  0.00    -0.481 OA
ATOM      5  H   UNL     1       6.929  -2.141  -4.295  1.00  0.00     0.296 HD
ENDBRANCH   2   4
ENDBRANCH   1   2
BRANCH   1   6
ATOM      6  C   UNL     1       7.045  -0.013  -2.149  1.00  0.00     0.047 C 
BRANCH   6   7
ATOM      7  C   UNL     1       6.492   0.109  -0.775  1.00  0.00    -0.047 A 
ATOM      8  C   UNL     1       6.630  -0.927   0.138  1.00  0.00     0.004 A 
ATOM      9  C   UNL     1       5.813   1.232  -0.338  1.00  0.00     0.004 A 
ATOM     10  C   UNL     1       6.120  -0.849   1.414  1.00  0.00     0.000 A 
ATOM     11  C   UNL     1       5.303   1.308   0.940  1.00  0.00     0.000 A 
ATOM     12  C   UNL     1       5.443   0.275   1.840  1.00  0.00     0.000 A 
ENDBRANCH   6   7
ENDBRANCH   1   6
TORSDOF 4
ENDMDL
MODEL 2
REMARK VINA RESULT:      -7.3      0.065      1.422
REMARK SMILES O=C(O)CCc1ccccc1
REMARK SMILES IDX 4 1 2 2 1 3 3 4 5 6 6 7 7 8 11 9 8 10 10 11 9 12
REMARK H PARENT 3 5
REMARK Flexibility Score: inf
ROOT
ATOM      1  C   UNL     1       8.397  -0.603  -2.208  1.00  0.00     0.127 C 
ENDROOT
BRANCH   1   2
ATOM      2  C   UNL     1       8.434  -1.893  -2.920  1.00  0.00     0.303 C 
ATOM      3  O   UNL     1       9.541  -2.477  -3.071  1.00  0.00    -0.252 OA
BRANCH   2   4
ATOM      4  O   UNL     1       7.277  -2.497  -3.434  1.00  0.00    -0.481 OA
ATOM      5  H   UNL     1       7.341  -3.443  -3.786  1.00  0.00     0.296 HD
ENDBRANCH   2   4
ENDBRANCH   1   2
BRANCH   1   6
ATOM      6  C   UNL     1       7.002  -0.005  -2.176  1.00  0.00     0.047 C 
BRANCH   6   7
ATOM      7  C   UNL     1       6.475   0.046  -0.787  1.00  0.00    -0.047 A 
ATOM      8  C   UNL     1       5.825   1.178  -0.318  1.00  0.00     0.004 A 
ATOM      9  C   UNL     1       6.609  -1.004   0.103  1.00  0.00     0.004 A 
ATOM     10  C   UNL     1       5.335   1.261   0.965  1.00  0.00     0.000 A 
ATOM     11  C   UNL     1       6.118  -0.920   1.388  1.00  0.00     0.000 A 
ATOM     12  C   UNL     1       5.475   0.207   1.846  1.00  0.00     0.000 A 
ENDBRANCH   6   7
ENDBRANCH   1   6
TORSDOF 4
ENDMDL
MODEL 3
REMARK VINA RESULT:      -7.1      0.634      1.165
REMARK SMILES O=C(O)CCc1ccccc1
REMARK SMILES IDX 4 1 2 2 1 3 3 4 5 6 6 7 7 8 11 9 8 10 10 11 9 12
REMARK H PARENT 3 5
REMARK Flexibility Score: inf
ROOT
ATOM      1  C   UNL     1       8.314  -0.890  -1.885  1.00  0.00     0.127 C 
ENDROOT
BRANCH   1   2
ATOM      2  C   UNL     1       8.406  -1.992  -2.859  1.00  0.00     0.303 C 
ATOM      3  O   UNL     1       9.528  -2.526  -3.074  1.00  0.00    -0.252 OA
BRANCH   2   4
ATOM      4  O   UNL     1       7.287  -2.471  -3.556  1.00  0.00    -0.481 OA
ATOM      5  H   UNL     1       6.730  -3.201  -3.133  1.00  0.00     0.296 HD
ENDBRANCH   2   4
ENDBRANCH   1   2
BRANCH   1   6
ATOM      6  C   UNL     1       7.691  -1.334  -0.574  1.00  0.00     0.047 C 
BRANCH   6   7
ATOM      7  C   UNL     1       6.757  -0.303  -0.051  1.00  0.00    -0.047 A 
ATOM      8  C   UNL     1       6.235  -0.405   1.230  1.00  0.00     0.004 A 
ATOM      9  C   UNL     1       6.355   0.789  -0.798  1.00  0.00     0.004 A 
ATOM     10  C   UNL     1       5.361   0.527   1.739  1.00  0.00     0.000 A 
ATOM     11  C   UNL     1       5.478   1.722  -0.287  1.00  0.00     0.000 A 
ATOM     12  C   UNL     1       4.964   1.613   0.985  1.00  0.00     0.000 A 
ENDBRANCH   6   7
ENDBRANCH   1   6
TORSDOF 4
ENDMDL
MODEL 4
REMARK VINA RESULT:      -6.8      3.394      5.074
REMARK SMILES O=C(O)CCc1ccccc1
REMARK SMILES IDX 4 1 2 2 1 3 3 4 5 6 6 7 7 8 11 9 8 10 10 11 9 12
REMARK H PARENT 3 5
REMARK Flexibility Score: inf
ROOT
ATOM      1  C   UNL     1       4.996   1.744   0.703  1.00  0.00     0.127 C 
ENDROOT
BRANCH   1   2
ATOM      2  C   UNL     1       4.469   1.097   1.918  1.00  0.00     0.303 C 
ATOM      3  O   UNL     1       5.150   0.193   2.474  1.00  0.00    -0.252 OA
BRANCH   2   4
ATOM      4  O   UNL     1       3.235   1.452   2.480  1.00  0.00    -0.481 OA
ATOM      5  H   UNL     1       2.651   0.722   2.866  1.00  0.00     0.296 HD
ENDBRANCH   2   4
ENDBRANCH   1   2
BRANCH   1   6
ATOM      6  C   UNL     1       6.506   1.894   0.741  1.00  0.00     0.047 C 
BRANCH   6   7
ATOM      7  C   UNL     1       7.148   1.098  -0.338  1.00  0.00    -0.047 A 
ATOM      8  C   UNL     1       6.413   0.177  -1.070  1.00  0.00     0.004 A 
ATOM      9  C   UNL     1       8.487   1.219  -0.661  1.00  0.00     0.004 A 
ATOM     10  C   UNL     1       6.980  -0.582  -2.068  1.00  0.00     0.000 A 
ATOM     11  C   UNL     1       9.053   0.458  -1.661  1.00  0.00     0.000 A 
ATOM     12  C   UNL     1       8.318  -0.455  -2.382  1.00  0.00     0.000 A 
ENDBRANCH   6   7
ENDBRANCH   1   6
TORSDOF 4
ENDMDL
MODEL 5
REMARK VINA RESULT:      -6.6      1.954      2.348
REMARK SMILES O=C(O)CCc1ccccc1
REMARK SMILES IDX 4 1 2 2 1 3 3 4 5 6 6 7 7 8 11 9 8 10 10 11 9 12
REMARK H PARENT 3 5
REMARK Flexibility Score: inf
ROOT
ATOM      1  C   UNL     1       8.308   0.007  -2.150  1.00  0.00     0.127 C 
ENDROOT
BRANCH   1   2
ATOM      2  C   UNL     1       9.398   0.286  -1.197  1.00  0.00     0.303 C 
ATOM      3  O   UNL     1       9.482  -0.402  -0.144  1.00  0.00    -0.252 OA
BRANCH   2   4
ATOM      4  O   UNL     1      10.348   1.293  -1.422  1.00  0.00    -0.481 OA
ATOM      5  H   UNL     1      10.268   2.157  -0.904  1.00  0.00     0.296 HD
ENDBRANCH   2   4
ENDBRANCH   1   2
BRANCH   1   6
ATOM      6  C   UNL     1       7.152  -0.730  -1.498  1.00  0.00     0.047 C 
BRANCH   6   7
ATOM      7  C   UNL     1       6.374   0.176  -0.613  1.00  0.00    -0.047 A 
ATOM      8  C   UNL     1       6.103  -0.179   0.700  1.00  0.00     0.004 A 
ATOM      9  C   UNL     1       5.877   1.394  -1.039  1.00  0.00     0.004 A 
ATOM     10  C   UNL     1       5.377   0.632   1.542  1.00  0.00     0.000 A 
ATOM     11  C   UNL     1       5.151   2.206  -0.195  1.00  0.00     0.000 A 
ATOM     12  C   UNL     1       4.885   1.846   1.106  1.00  0.00     0.000 A 
ENDBRANCH   6   7
ENDBRANCH   1   6
TORSDOF 4
ENDMDL
