@<TRIPOS>MOLECULE
/home/cewinharhar/GITHUB/reincatalyze/data/processed/docking_pred/2023-Apr-25-2248_maxeplen10_maxtrainstep1000_exh16_gamma099_lrac3e-4_lrcr1e-3/b658f69152bbaa0d4df6d0fc1d77222c9f34aa3c_ligand_2.pdbqt
 12 12 0 0 0
SMALL
GASTEIGER

@<TRIPOS>ATOM
      1  C          8.4190   -0.6580   -2.1270 C.3     1  UNL1        0.1270
      2  C          8.4560   -1.9150   -2.8950 C.2     1  UNL1        0.3030
      3  O          9.5650   -2.4860   -3.0820 O.2     1  UNL1       -0.2520
      4  O          7.2980   -2.5020   -3.4260 O.3     1  UNL1       -0.4810
      5  H          6.9290   -2.1410   -4.2950 H       1  UNL1        0.2960
      6  C          7.0450   -0.0130   -2.1490 C.3     1  UNL1        0.0470
      7  C          6.4920    0.1090   -0.7750 C.2     1  UNL1       -0.0470
      8  C          6.6300   -0.9270    0.1380 C.2     1  UNL1        0.0040
      9  C          5.8130    1.2320   -0.3380 C.2     1  UNL1        0.0040
     10  C          6.1200   -0.8490    1.4140 C.2     1  UNL1        0.0000
     11  C          5.3030    1.3080    0.9400 C.2     1  UNL1        0.0000
     12  C          5.4430    0.2750    1.8400 C.2     1  UNL1        0.0000
@<TRIPOS>BOND
     1     5     4    1
     2     4     2    1
     3     3     2    2
     4     2     1    1
     5     6     1    1
     6     6     7    1
     7     7     9    2
     8     7     8    1
     9     9    11    1
    10     8    10    2
    11    11    12    2
    12    10    12    1
