@<TRIPOS>MOLECULE
/home/cewinharhar/GITHUB/reincatalyze/data/processed/docking_pred/2023-Apr-25-2248_maxeplen10_maxtrainstep1000_exh16_gamma099_lrac3e-4_lrcr1e-3/b8d8050f43b71ccf975db7ed0a80e234855f027b_ligand_2.pdbqt
 12 12 0 0 0
SMALL
GASTEIGER

@<TRIPOS>ATOM
      1  C          5.0380    1.7910    0.7410 C.3     1  UNL1        0.1270
      2  C          4.4820    1.1170    1.9280 C.2     1  UNL1        0.3030
      3  O          5.1490    0.1990    2.4800 O.2     1  UNL1       -0.2520
      4  O          3.2350    1.4620    2.4690 O.3     1  UNL1       -0.4810
      5  H          3.0340    1.2030    3.4250 H       1  UNL1        0.2960
      6  C          6.5530    1.8780    0.7880 C.3     1  UNL1        0.0470
      7  C          7.1650    1.1010   -0.3220 C.2     1  UNL1       -0.0470
      8  C          6.4060    0.2070   -1.0630 C.2     1  UNL1        0.0040
      9  C          8.5000    1.2150   -0.6670 C.2     1  UNL1        0.0040
     10  C          6.9460   -0.5340   -2.0890 C.2     1  UNL1        0.0000
     11  C          9.0380    0.4720   -1.6960 C.2     1  UNL1        0.0000
     12  C          8.2790   -0.4150   -2.4250 C.2     1  UNL1        0.0000
@<TRIPOS>BOND
     1    12    10    2
     2    12    11    1
     3    10     8    1
     4    11     9    2
     5     8     7    2
     6     9     7    1
     7     7     6    1
     8     1     6    1
     9     1     2    1
    10     2     4    1
    11     2     3    2
    12     4     5    1
