@<TRIPOS>MOLECULE
/home/cewinharhar/GITHUB/reincatalyze/data/processed/docking_pred/2023-Apr-25-2248_maxeplen10_maxtrainstep1000_exh16_gamma099_lrac3e-4_lrcr1e-3/b8d8050f43b71ccf975db7ed0a80e234855f027b_ligand_2.pdbqt
 12 12 0 0 0
SMALL
GASTEIGER

@<TRIPOS>ATOM
      1  C          8.4280   -0.6970   -2.0980 C.3     1  UNL1        0.1270
      2  C          8.4440   -1.9350   -2.8970 C.2     1  UNL1        0.3030
      3  O          9.5430   -2.5170   -3.1030 O.2     1  UNL1       -0.2520
      4  O          7.2750   -2.4910   -3.4380 O.3     1  UNL1       -0.4810
      5  H          7.1600   -3.4950   -3.4090 H       1  UNL1        0.2960
      6  C          7.0660   -0.0250   -2.1080 C.3     1  UNL1        0.0470
      7  C          6.4990    0.0480   -0.7360 C.2     1  UNL1       -0.0470
      8  C          5.8340    1.1880   -0.3050 C.2     1  UNL1        0.0040
      9  C          6.6050   -0.9870    0.1740 C.2     1  UNL1        0.0040
     10  C          5.3070    1.2910    0.9610 C.2     1  UNL1        0.0000
     11  C          6.0770   -0.8820    1.4430 C.2     1  UNL1        0.0000
     12  C          5.4200    0.2520    1.8630 C.2     1  UNL1        0.0000
@<TRIPOS>BOND
     1     4     5    1
     2     4     2    1
     3     3     2    2
     4     2     1    1
     5     6     1    1
     6     6     7    1
     7     7     8    2
     8     7     9    1
     9     8    10    1
    10     9    11    2
    11    10    12    2
    12    11    12    1
