MODEL 1
REMARK VINA RESULT:      -7.4      0.000      0.000
REMARK SMILES O=C(O)CCc1ccccc1
REMARK SMILES IDX 4 1 2 2 1 3 3 4 5 6 6 7 7 8 11 9 8 10 10 11 9 12
REMARK H PARENT 3 5
REMARK Flexibility Score: inf
ROOT
ATOM      1  C   UNL     1       8.428  -0.697  -2.098  1.00  0.00     0.127 C 
ENDROOT
BRANCH   1   2
ATOM      2  C   UNL     1       8.444  -1.935  -2.897  1.00  0.00     0.303 C 
ATOM      3  O   UNL     1       9.543  -2.517  -3.103  1.00  0.00    -0.252 OA
BRANCH   2   4
ATOM      4  O   UNL     1       7.275  -2.491  -3.438  1.00  0.00    -0.481 OA
ATOM      5  H   UNL     1       7.160  -3.495  -3.409  1.00  0.00     0.296 HD
ENDBRANCH   2   4
ENDBRANCH   1   2
BRANCH   1   6
ATOM      6  C   UNL     1       7.066  -0.025  -2.108  1.00  0.00     0.047 C 
BRANCH   6   7
ATOM      7  C   UNL     1       6.499   0.048  -0.736  1.00  0.00    -0.047 A 
ATOM      8  C   UNL     1       5.834   1.188  -0.305  1.00  0.00     0.004 A 
ATOM      9  C   UNL     1       6.605  -0.987   0.174  1.00  0.00     0.004 A 
ATOM     10  C   UNL     1       5.307   1.291   0.961  1.00  0.00     0.000 A 
ATOM     11  C   UNL     1       6.077  -0.882   1.443  1.00  0.00     0.000 A 
ATOM     12  C   UNL     1       5.420   0.252   1.863  1.00  0.00     0.000 A 
ENDBRANCH   6   7
ENDBRANCH   1   6
TORSDOF 4
ENDMDL
MODEL 2
REMARK VINA RESULT:      -7.3      0.079      1.422
REMARK SMILES O=C(O)CCc1ccccc1
REMARK SMILES IDX 4 1 2 2 1 3 3 4 5 6 6 7 7 8 11 9 8 10 10 11 9 12
REMARK H PARENT 3 5
REMARK Flexibility Score: inf
ROOT
ATOM      1  C   UNL     1       8.411  -0.604  -2.185  1.00  0.00     0.127 C 
ENDROOT
BRANCH   1   2
ATOM      2  C   UNL     1       8.452  -1.881  -2.919  1.00  0.00     0.303 C 
ATOM      3  O   UNL     1       9.562  -2.454  -3.089  1.00  0.00    -0.252 OA
BRANCH   2   4
ATOM      4  O   UNL     1       7.295  -2.484  -3.435  1.00  0.00    -0.481 OA
ATOM      5  H   UNL     1       7.145  -3.469  -3.260  1.00  0.00     0.296 HD
ENDBRANCH   2   4
ENDBRANCH   1   2
BRANCH   1   6
ATOM      6  C   UNL     1       7.021   0.008  -2.174  1.00  0.00     0.047 C 
BRANCH   6   7
ATOM      7  C   UNL     1       6.492   0.104  -0.789  1.00  0.00    -0.047 A 
ATOM      8  C   UNL     1       6.598  -0.969   0.085  1.00  0.00     0.004 A 
ATOM      9  C   UNL     1       5.868   1.238  -0.303  1.00  0.00     0.004 A 
ATOM     10  C   UNL     1       6.108  -0.916   1.370  1.00  0.00     0.000 A 
ATOM     11  C   UNL     1       5.379   1.290   0.985  1.00  0.00     0.000 A 
ATOM     12  C   UNL     1       5.486   0.221   1.845  1.00  0.00     0.000 A 
ENDBRANCH   6   7
ENDBRANCH   1   6
TORSDOF 4
ENDMDL
MODEL 3
REMARK VINA RESULT:      -6.8      3.400      5.104
REMARK SMILES O=C(O)CCc1ccccc1
REMARK SMILES IDX 4 1 2 2 1 3 3 4 5 6 6 7 7 8 11 9 8 10 10 11 9 12
REMARK H PARENT 3 5
REMARK Flexibility Score: inf
ROOT
ATOM      1  C   UNL     1       5.038   1.791   0.741  1.00  0.00     0.127 C 
ENDROOT
BRANCH   1   2
ATOM      2  C   UNL     1       4.482   1.117   1.928  1.00  0.00     0.303 C 
ATOM      3  O   UNL     1       5.149   0.199   2.480  1.00  0.00    -0.252 OA
BRANCH   2   4
ATOM      4  O   UNL     1       3.235   1.462   2.469  1.00  0.00    -0.481 OA
ATOM      5  H   UNL     1       3.034   1.203   3.425  1.00  0.00     0.296 HD
ENDBRANCH   2   4
ENDBRANCH   1   2
BRANCH   1   6
ATOM      6  C   UNL     1       6.553   1.878   0.788  1.00  0.00     0.047 C 
BRANCH   6   7
ATOM      7  C   UNL     1       7.165   1.101  -0.322  1.00  0.00    -0.047 A 
ATOM      8  C   UNL     1       6.406   0.207  -1.063  1.00  0.00     0.004 A 
ATOM      9  C   UNL     1       8.500   1.215  -0.667  1.00  0.00     0.004 A 
ATOM     10  C   UNL     1       6.946  -0.534  -2.089  1.00  0.00     0.000 A 
ATOM     11  C   UNL     1       9.038   0.472  -1.696  1.00  0.00     0.000 A 
ATOM     12  C   UNL     1       8.279  -0.415  -2.425  1.00  0.00     0.000 A 
ENDBRANCH   6   7
ENDBRANCH   1   6
TORSDOF 4
ENDMDL
MODEL 4
REMARK VINA RESULT:      -6.6      1.960      2.293
REMARK SMILES O=C(O)CCc1ccccc1
REMARK SMILES IDX 4 1 2 2 1 3 3 4 5 6 6 7 7 8 11 9 8 10 10 11 9 12
REMARK H PARENT 3 5
REMARK Flexibility Score: inf
ROOT
ATOM      1  C   UNL     1       8.191   0.282  -2.048  1.00  0.00     0.127 C 
ENDROOT
BRANCH   1   2
ATOM      2  C   UNL     1       9.377   0.383  -1.178  1.00  0.00     0.303 C 
ATOM      3  O   UNL     1       9.480  -0.396  -0.192  1.00  0.00    -0.252 OA
BRANCH   2   4
ATOM      4  O   UNL     1      10.397   1.317  -1.410  1.00  0.00    -0.481 OA
ATOM      5  H   UNL     1      10.510   2.081  -0.759  1.00  0.00     0.296 HD
ENDBRANCH   2   4
ENDBRANCH   1   2
BRANCH   1   6
ATOM      6  C   UNL     1       7.131  -0.638  -1.469  1.00  0.00     0.047 C 
BRANCH   6   7
ATOM      7  C   UNL     1       6.349   0.052  -0.410  1.00  0.00    -0.047 A 
ATOM      8  C   UNL     1       5.803   1.307  -0.637  1.00  0.00     0.004 A 
ATOM      9  C   UNL     1       6.133  -0.500   0.839  1.00  0.00     0.004 A 
ATOM     10  C   UNL     1       5.083   1.975   0.326  1.00  0.00     0.000 A 
ATOM     11  C   UNL     1       5.411   0.171   1.803  1.00  0.00     0.000 A 
ATOM     12  C   UNL     1       4.873   1.417   1.571  1.00  0.00     0.000 A 
ENDBRANCH   6   7
ENDBRANCH   1   6
TORSDOF 4
ENDMDL
MODEL 5
REMARK VINA RESULT:      -6.6      1.959      2.945
REMARK SMILES O=C(O)CCc1ccccc1
REMARK SMILES IDX 4 1 2 2 1 3 3 4 5 6 6 7 7 8 11 9 8 10 10 11 9 12
REMARK H PARENT 3 5
REMARK Flexibility Score: inf
ROOT
ATOM      1  C   UNL     1       8.291  -1.690   1.145  1.00  0.00     0.127 C 
ENDROOT
BRANCH   1   2
ATOM      2  C   UNL     1       8.685  -2.927   0.447  1.00  0.00     0.303 C 
ATOM      3  O   UNL     1       9.421  -3.759   1.045  1.00  0.00    -0.252 OA
BRANCH   2   4
ATOM      4  O   UNL     1       8.268  -3.213  -0.861  1.00  0.00    -0.481 OA
ATOM      5  H   UNL     1       8.829  -3.842  -1.420  1.00  0.00     0.296 HD
ENDBRANCH   2   4
ENDBRANCH   1   2
BRANCH   1   6
ATOM      6  C   UNL     1       6.792  -1.615   1.378  1.00  0.00     0.047 C 
BRANCH   6   7
ATOM      7  C   UNL     1       6.233  -0.346   0.844  1.00  0.00    -0.047 A 
ATOM      8  C   UNL     1       6.469   0.034  -0.470  1.00  0.00     0.004 A 
ATOM      9  C   UNL     1       5.471   0.517   1.609  1.00  0.00     0.004 A 
ATOM     10  C   UNL     1       5.975   1.208  -0.991  1.00  0.00     0.000 A 
ATOM     11  C   UNL     1       4.976   1.692   1.086  1.00  0.00     0.000 A 
ATOM     12  C   UNL     1       5.216   2.063  -0.218  1.00  0.00     0.000 A 
ENDBRANCH   6   7
ENDBRANCH   1   6
TORSDOF 4
ENDMDL
