@<TRIPOS>MOLECULE
/home/cewinharhar/GITHUB/reincatalyze/data/processed/docking_pred/2023-Apr-25-2248_maxeplen10_maxtrainstep1000_exh16_gamma099_lrac3e-4_lrcr1e-3/b8d8050f43b71ccf975db7ed0a80e234855f027b_ligand_2.pdbqt
 12 12 0 0 0
SMALL
GASTEIGER

@<TRIPOS>ATOM
      1  C          8.4110   -0.6040   -2.1850 C.3     1  UNL1        0.1270
      2  C          8.4520   -1.8810   -2.9190 C.2     1  UNL1        0.3030
      3  O          9.5620   -2.4540   -3.0890 O.2     1  UNL1       -0.2520
      4  O          7.2950   -2.4840   -3.4350 O.3     1  UNL1       -0.4810
      5  H          7.1450   -3.4690   -3.2600 H       1  UNL1        0.2960
      6  C          7.0210    0.0080   -2.1740 C.3     1  UNL1        0.0470
      7  C          6.4920    0.1040   -0.7890 C.2     1  UNL1       -0.0470
      8  C          6.5980   -0.9690    0.0850 C.2     1  UNL1        0.0040
      9  C          5.8680    1.2380   -0.3030 C.2     1  UNL1        0.0040
     10  C          6.1080   -0.9160    1.3700 C.2     1  UNL1        0.0000
     11  C          5.3790    1.2900    0.9850 C.2     1  UNL1        0.0000
     12  C          5.4860    0.2210    1.8450 C.2     1  UNL1        0.0000
@<TRIPOS>BOND
     1     4     5    1
     2     4     2    1
     3     3     2    2
     4     2     1    1
     5     1     6    1
     6     6     7    1
     7     7     9    2
     8     7     8    1
     9     9    11    1
    10     8    10    2
    11    11    12    2
    12    10    12    1
