@<TRIPOS>MOLECULE
/home/cewinharhar/GITHUB/reincatalyze/data/processed/docking_pred/2023-Apr-25-2248_maxeplen10_maxtrainstep1000_exh16_gamma099_lrac3e-4_lrcr1e-3/b8d8050f43b71ccf975db7ed0a80e234855f027b_ligand_2.pdbqt
 12 12 0 0 0
SMALL
GASTEIGER

@<TRIPOS>ATOM
      1  C          8.1910    0.2820   -2.0480 C.3     1  UNL1        0.1270
      2  C          9.3770    0.3830   -1.1780 C.2     1  UNL1        0.3030
      3  O          9.4800   -0.3960   -0.1920 O.2     1  UNL1       -0.2520
      4  O         10.3970    1.3170   -1.4100 O.3     1  UNL1       -0.4810
      5  H         10.5100    2.0810   -0.7590 H       1  UNL1        0.2960
      6  C          7.1310   -0.6380   -1.4690 C.3     1  UNL1        0.0470
      7  C          6.3490    0.0520   -0.4100 C.2     1  UNL1       -0.0470
      8  C          5.8030    1.3070   -0.6370 C.2     1  UNL1        0.0040
      9  C          6.1330   -0.5000    0.8390 C.2     1  UNL1        0.0040
     10  C          5.0830    1.9750    0.3260 C.2     1  UNL1        0.0000
     11  C          5.4110    0.1710    1.8030 C.2     1  UNL1        0.0000
     12  C          4.8730    1.4170    1.5710 C.2     1  UNL1        0.0000
@<TRIPOS>BOND
     1     1     6    1
     2     1     2    1
     3     6     7    1
     4     4     2    1
     5     4     5    1
     6     2     3    2
     7     8     7    2
     8     8    10    1
     9     7     9    1
    10    10    12    2
    11     9    11    2
    12    12    11    1
