@<TRIPOS>MOLECULE
/home/cewinharhar/GITHUB/reincatalyze/data/processed/docking_pred/2023-Apr-25-2248_maxeplen10_maxtrainstep1000_exh16_gamma099_lrac3e-4_lrcr1e-3/b8d8050f43b71ccf975db7ed0a80e234855f027b_ligand_2.pdbqt
 12 12 0 0 0
SMALL
GASTEIGER

@<TRIPOS>ATOM
      1  C          8.2910   -1.6900    1.1450 C.3     1  UNL1        0.1270
      2  C          8.6850   -2.9270    0.4470 C.2     1  UNL1        0.3030
      3  O          9.4210   -3.7590    1.0450 O.2     1  UNL1       -0.2520
      4  O          8.2680   -3.2130   -0.8610 O.3     1  UNL1       -0.4810
      5  H          8.8290   -3.8420   -1.4200 H       1  UNL1        0.2960
      6  C          6.7920   -1.6150    1.3780 C.3     1  UNL1        0.0470
      7  C          6.2330   -0.3460    0.8440 C.2     1  UNL1       -0.0470
      8  C          6.4690    0.0340   -0.4700 C.2     1  UNL1        0.0040
      9  C          5.4710    0.5170    1.6090 C.2     1  UNL1        0.0040
     10  C          5.9750    1.2080   -0.9910 C.2     1  UNL1        0.0000
     11  C          4.9760    1.6920    1.0860 C.2     1  UNL1        0.0000
     12  C          5.2160    2.0630   -0.2180 C.2     1  UNL1        0.0000
@<TRIPOS>BOND
     1     5     4    1
     2    10     8    1
     3    10    12    2
     4     4     2    1
     5     8     7    2
     6    12    11    1
     7     2     3    2
     8     2     1    1
     9     7     6    1
    10     7     9    1
    11    11     9    2
    12     1     6    1
