@<TRIPOS>MOLECULE
/home/cewinharhar/GITHUB/reincatalyze/data/processed/docking_pred/2023-Apr-25-2248_maxeplen10_maxtrainstep1000_exh16_gamma099_lrac3e-4_lrcr1e-3/b99eeed02ad73e34178363463c07c25b6fbf2bee_ligand_2.pdbqt
 12 12 0 0 0
SMALL
GASTEIGER

@<TRIPOS>ATOM
      1  C          5.0050    1.7440    0.7170 C.3     1  UNL1        0.1270
      2  C          4.4710    1.1030    1.9310 C.2     1  UNL1        0.3030
      3  O          5.1520    0.2080    2.5010 O.2     1  UNL1       -0.2520
      4  O          3.2290    1.4560    2.4790 O.3     1  UNL1       -0.4810
      5  H          2.6970    2.1930    2.0360 H       1  UNL1        0.2960
      6  C          6.5180    1.8660    0.7490 C.3     1  UNL1        0.0470
      7  C          7.1400    1.0570   -0.3310 C.2     1  UNL1       -0.0470
      8  C          8.4780    1.2240   -0.6580 C.2     1  UNL1        0.0040
      9  C          6.4370    0.1180   -1.0630 C.2     1  UNL1        0.0040
     10  C          9.0810    0.4980   -1.6600 C.2     1  UNL1        0.0000
     11  C          7.0430   -0.6080   -2.0660 C.2     1  UNL1        0.0000
     12  C          8.3700   -0.4360   -2.3860 C.2     1  UNL1        0.0000
@<TRIPOS>BOND
     1    12    11    2
     2    12    10    1
     3    11     9    1
     4    10     8    2
     5     9     7    2
     6     8     7    1
     7     7     6    1
     8     1     6    1
     9     1     2    1
    10     2     4    1
    11     2     3    2
    12     5     4    1
