@<TRIPOS>MOLECULE
/home/cewinharhar/GITHUB/reincatalyze/data/processed/docking_pred/2023-Apr-25-2248_maxeplen10_maxtrainstep1000_exh16_gamma099_lrac3e-4_lrcr1e-3/b99eeed02ad73e34178363463c07c25b6fbf2bee_ligand_2.pdbqt
 12 12 0 0 0
SMALL
GASTEIGER

@<TRIPOS>ATOM
      1  C          8.4080   -0.7070   -2.0550 C.3     1  UNL1        0.1270
      2  C          8.4090   -1.9320   -2.8750 C.2     1  UNL1        0.3030
      3  O          7.3070   -2.4200   -3.2460 O.2     1  UNL1       -0.2520
      4  O          9.5940   -2.5740   -3.2580 O.3     1  UNL1       -0.4810
      5  H          9.5320   -3.3860   -3.8580 H       1  UNL1        0.2960
      6  C          7.0680    0.0050   -2.0880 C.3     1  UNL1        0.0470
      7  C          6.4810    0.0990   -0.7260 C.2     1  UNL1       -0.0470
      8  C          5.7960    1.2380   -0.3270 C.2     1  UNL1        0.0040
      9  C          6.5890   -0.9160    0.2070 C.2     1  UNL1        0.0040
     10  C          5.2500    1.3590    0.9300 C.2     1  UNL1        0.0000
     11  C          6.0420   -0.7930    1.4660 C.2     1  UNL1        0.0000
     12  C          5.3640    0.3410    1.8550 C.2     1  UNL1        0.0000
@<TRIPOS>BOND
     1     5     4    1
     2     4     2    1
     3     3     2    2
     4     2     1    1
     5     6     1    1
     6     6     7    1
     7     7     8    2
     8     7     9    1
     9     8    10    1
    10     9    11    2
    11    10    12    2
    12    11    12    1
