@<TRIPOS>MOLECULE
/home/cewinharhar/GITHUB/reincatalyze/data/processed/docking_pred/2023-Apr-25-2248_maxeplen10_maxtrainstep1000_exh16_gamma099_lrac3e-4_lrcr1e-3/b99eeed02ad73e34178363463c07c25b6fbf2bee_ligand_2.pdbqt
 12 12 0 0 0
SMALL
GASTEIGER

@<TRIPOS>ATOM
      1  C          8.2110   -1.5860    1.0580 C.3     1  UNL1        0.1270
      2  C          8.4980   -2.7880    0.2550 C.2     1  UNL1        0.3030
      3  O          9.1400   -3.7370    0.7820 O.2     1  UNL1       -0.2520
      4  O          8.0810   -2.9140   -1.0780 O.3     1  UNL1       -0.4810
      5  H          7.3720   -2.2820   -1.4240 H       1  UNL1        0.2960
      6  C          6.7310   -1.4420    1.3650 C.3     1  UNL1        0.0470
      7  C          6.1890   -0.1800    0.7960 C.2     1  UNL1       -0.0470
      8  C          5.3950    0.6590    1.5640 C.2     1  UNL1        0.0040
      9  C          6.4300    0.2170   -0.5060 C.2     1  UNL1        0.0040
     10  C          4.8700    1.8280    1.0640 C.2     1  UNL1        0.0000
     11  C          5.9040    1.3890   -1.0060 C.2     1  UNL1        0.0000
     12  C          5.1160    2.2160   -0.2380 C.2     1  UNL1        0.0000
@<TRIPOS>BOND
     1     5     4    1
     2     4     2    1
     3    11     9    1
     4    11    12    2
     5     9     7    2
     6    12    10    1
     7     2     3    2
     8     2     1    1
     9     7     6    1
    10     7     8    1
    11     1     6    1
    12    10     8    2
