@<TRIPOS>MOLECULE
/home/cewinharhar/GITHUB/reincatalyze/data/processed/docking_pred/2023-Apr-25-2248_maxeplen10_maxtrainstep1000_exh16_gamma099_lrac3e-4_lrcr1e-3/b99eeed02ad73e34178363463c07c25b6fbf2bee_ligand_2.pdbqt
 12 12 0 0 0
SMALL
GASTEIGER

@<TRIPOS>ATOM
      1  C          8.3980   -0.6290   -2.1480 C.3     1  UNL1        0.1270
      2  C          8.4360   -1.8920   -2.9080 C.2     1  UNL1        0.3030
      3  O          9.5450   -2.4610   -3.0940 O.2     1  UNL1       -0.2520
      4  O          7.2780   -2.4840   -3.4320 O.3     1  UNL1       -0.4810
      5  H          7.0960   -3.4570   -3.2240 H       1  UNL1        0.2960
      6  C          7.0120   -0.0110   -2.1320 C.3     1  UNL1        0.0470
      7  C          6.4840    0.0770   -0.7450 C.2     1  UNL1       -0.0470
      8  C          6.6060   -0.9940    0.1280 C.2     1  UNL1        0.0040
      9  C          5.8450    1.2020   -0.2570 C.2     1  UNL1        0.0040
     10  C          6.1190   -0.9480    1.4140 C.2     1  UNL1        0.0000
     11  C          5.3580    1.2470    1.0310 C.2     1  UNL1        0.0000
     12  C          5.4820    0.1800    1.8910 C.2     1  UNL1        0.0000
@<TRIPOS>BOND
     1     4     5    1
     2     4     2    1
     3     3     2    2
     4     2     1    1
     5     1     6    1
     6     6     7    1
     7     7     9    2
     8     7     8    1
     9     9    11    1
    10     8    10    2
    11    11    12    2
    12    10    12    1
