MODEL 1
REMARK VINA RESULT:      -7.3      0.000      0.000
REMARK SMILES O=C(O)CCc1ccccc1
REMARK SMILES IDX 4 1 2 2 1 3 3 4 5 6 6 7 7 8 11 9 8 10 10 11 9 12
REMARK H PARENT 3 5
REMARK Flexibility Score: inf
ROOT
ATOM      1  C   UNL     1       8.398  -0.629  -2.148  1.00  0.00     0.127 C 
ENDROOT
BRANCH   1   2
ATOM      2  C   UNL     1       8.436  -1.892  -2.908  1.00  0.00     0.303 C 
ATOM      3  O   UNL     1       9.545  -2.461  -3.094  1.00  0.00    -0.252 OA
BRANCH   2   4
ATOM      4  O   UNL     1       7.278  -2.484  -3.432  1.00  0.00    -0.481 OA
ATOM      5  H   UNL     1       7.096  -3.457  -3.224  1.00  0.00     0.296 HD
ENDBRANCH   2   4
ENDBRANCH   1   2
BRANCH   1   6
ATOM      6  C   UNL     1       7.012  -0.011  -2.132  1.00  0.00     0.047 C 
BRANCH   6   7
ATOM      7  C   UNL     1       6.484   0.077  -0.745  1.00  0.00    -0.047 A 
ATOM      8  C   UNL     1       6.606  -0.994   0.128  1.00  0.00     0.004 A 
ATOM      9  C   UNL     1       5.845   1.202  -0.257  1.00  0.00     0.004 A 
ATOM     10  C   UNL     1       6.119  -0.948   1.414  1.00  0.00     0.000 A 
ATOM     11  C   UNL     1       5.358   1.247   1.031  1.00  0.00     0.000 A 
ATOM     12  C   UNL     1       5.482   0.180   1.891  1.00  0.00     0.000 A 
ENDBRANCH   6   7
ENDBRANCH   1   6
TORSDOF 4
ENDMDL
MODEL 2
REMARK VINA RESULT:      -7.2      0.146      1.725
REMARK SMILES O=C(O)CCc1ccccc1
REMARK SMILES IDX 4 1 2 2 1 3 3 4 5 6 6 7 7 8 11 9 8 10 10 11 9 12
REMARK H PARENT 3 5
REMARK Flexibility Score: inf
ROOT
ATOM      1  C   UNL     1       8.408  -0.707  -2.055  1.00  0.00     0.127 C 
ENDROOT
BRANCH   1   2
ATOM      2  C   UNL     1       8.409  -1.932  -2.875  1.00  0.00     0.303 C 
ATOM      3  O   UNL     1       7.307  -2.420  -3.246  1.00  0.00    -0.252 OA
BRANCH   2   4
ATOM      4  O   UNL     1       9.594  -2.574  -3.258  1.00  0.00    -0.481 OA
ATOM      5  H   UNL     1       9.532  -3.386  -3.858  1.00  0.00     0.296 HD
ENDBRANCH   2   4
ENDBRANCH   1   2
BRANCH   1   6
ATOM      6  C   UNL     1       7.068   0.005  -2.088  1.00  0.00     0.047 C 
BRANCH   6   7
ATOM      7  C   UNL     1       6.481   0.099  -0.726  1.00  0.00    -0.047 A 
ATOM      8  C   UNL     1       5.796   1.238  -0.327  1.00  0.00     0.004 A 
ATOM      9  C   UNL     1       6.589  -0.916   0.207  1.00  0.00     0.004 A 
ATOM     10  C   UNL     1       5.250   1.359   0.930  1.00  0.00     0.000 A 
ATOM     11  C   UNL     1       6.042  -0.793   1.466  1.00  0.00     0.000 A 
ATOM     12  C   UNL     1       5.364   0.341   1.855  1.00  0.00     0.000 A 
ENDBRANCH   6   7
ENDBRANCH   1   6
TORSDOF 4
ENDMDL
MODEL 3
REMARK VINA RESULT:      -6.8      3.399      5.100
REMARK SMILES O=C(O)CCc1ccccc1
REMARK SMILES IDX 4 1 2 2 1 3 3 4 5 6 6 7 7 8 11 9 8 10 10 11 9 12
REMARK H PARENT 3 5
REMARK Flexibility Score: inf
ROOT
ATOM      1  C   UNL     1       5.005   1.744   0.717  1.00  0.00     0.127 C 
ENDROOT
BRANCH   1   2
ATOM      2  C   UNL     1       4.471   1.103   1.931  1.00  0.00     0.303 C 
ATOM      3  O   UNL     1       5.152   0.208   2.501  1.00  0.00    -0.252 OA
BRANCH   2   4
ATOM      4  O   UNL     1       3.229   1.456   2.479  1.00  0.00    -0.481 OA
ATOM      5  H   UNL     1       2.697   2.193   2.036  1.00  0.00     0.296 HD
ENDBRANCH   2   4
ENDBRANCH   1   2
BRANCH   1   6
ATOM      6  C   UNL     1       6.518   1.866   0.749  1.00  0.00     0.047 C 
BRANCH   6   7
ATOM      7  C   UNL     1       7.140   1.057  -0.331  1.00  0.00    -0.047 A 
ATOM      8  C   UNL     1       8.478   1.224  -0.658  1.00  0.00     0.004 A 
ATOM      9  C   UNL     1       6.437   0.118  -1.063  1.00  0.00     0.004 A 
ATOM     10  C   UNL     1       9.081   0.498  -1.660  1.00  0.00     0.000 A 
ATOM     11  C   UNL     1       7.043  -0.608  -2.066  1.00  0.00     0.000 A 
ATOM     12  C   UNL     1       8.370  -0.436  -2.386  1.00  0.00     0.000 A 
ENDBRANCH   6   7
ENDBRANCH   1   6
TORSDOF 4
ENDMDL
MODEL 4
REMARK VINA RESULT:      -6.6      1.965      2.684
REMARK SMILES O=C(O)CCc1ccccc1
REMARK SMILES IDX 4 1 2 2 1 3 3 4 5 6 6 7 7 8 11 9 8 10 10 11 9 12
REMARK H PARENT 3 5
REMARK Flexibility Score: inf
ROOT
ATOM      1  C   UNL     1       8.317   0.158  -2.155  1.00  0.00     0.127 C 
ENDROOT
BRANCH   1   2
ATOM      2  C   UNL     1       9.436   0.362  -1.219  1.00  0.00     0.303 C 
ATOM      3  O   UNL     1       9.513  -0.362  -0.189  1.00  0.00    -0.252 OA
BRANCH   2   4
ATOM      4  O   UNL     1      10.423   1.335  -1.433  1.00  0.00    -0.481 OA
ATOM      5  H   UNL     1      10.265   2.270  -1.080  1.00  0.00     0.296 HD
ENDBRANCH   2   4
ENDBRANCH   1   2
BRANCH   1   6
ATOM      6  C   UNL     1       7.199  -0.667  -1.543  1.00  0.00     0.047 C 
BRANCH   6   7
ATOM      7  C   UNL     1       6.398   0.146  -0.590  1.00  0.00    -0.047 A 
ATOM      8  C   UNL     1       5.857   1.363  -0.979  1.00  0.00     0.004 A 
ATOM      9  C   UNL     1       6.159  -0.249   0.713  1.00  0.00     0.004 A 
ATOM     10  C   UNL     1       5.120   2.143  -0.118  1.00  0.00     0.000 A 
ATOM     11  C   UNL     1       5.420   0.533   1.575  1.00  0.00     0.000 A 
ATOM     12  C   UNL     1       4.888   1.740   1.182  1.00  0.00     0.000 A 
ENDBRANCH   6   7
ENDBRANCH   1   6
TORSDOF 4
ENDMDL
MODEL 5
REMARK VINA RESULT:      -6.6      1.872      2.898
REMARK SMILES O=C(O)CCc1ccccc1
REMARK SMILES IDX 4 1 2 2 1 3 3 4 5 6 6 7 7 8 11 9 8 10 10 11 9 12
REMARK H PARENT 3 5
REMARK Flexibility Score: inf
ROOT
ATOM      1  C   UNL     1       8.211  -1.586   1.058  1.00  0.00     0.127 C 
ENDROOT
BRANCH   1   2
ATOM      2  C   UNL     1       8.498  -2.788   0.255  1.00  0.00     0.303 C 
ATOM      3  O   UNL     1       9.140  -3.737   0.782  1.00  0.00    -0.252 OA
BRANCH   2   4
ATOM      4  O   UNL     1       8.081  -2.914  -1.078  1.00  0.00    -0.481 OA
ATOM      5  H   UNL     1       7.372  -2.282  -1.424  1.00  0.00     0.296 HD
ENDBRANCH   2   4
ENDBRANCH   1   2
BRANCH   1   6
ATOM      6  C   UNL     1       6.731  -1.442   1.365  1.00  0.00     0.047 C 
BRANCH   6   7
ATOM      7  C   UNL     1       6.189  -0.180   0.796  1.00  0.00    -0.047 A 
ATOM      8  C   UNL     1       5.395   0.659   1.564  1.00  0.00     0.004 A 
ATOM      9  C   UNL     1       6.430   0.217  -0.506  1.00  0.00     0.004 A 
ATOM     10  C   UNL     1       4.870   1.828   1.064  1.00  0.00     0.000 A 
ATOM     11  C   UNL     1       5.904   1.389  -1.006  1.00  0.00     0.000 A 
ATOM     12  C   UNL     1       5.116   2.216  -0.238  1.00  0.00     0.000 A 
ENDBRANCH   6   7
ENDBRANCH   1   6
TORSDOF 4
ENDMDL
