@<TRIPOS>MOLECULE
/home/cewinharhar/GITHUB/reincatalyze/data/processed/docking_pred/2023-Apr-25-2248_maxeplen10_maxtrainstep1000_exh16_gamma099_lrac3e-4_lrcr1e-3/b9a0748b4c4cb53be71f33acfe76cbadf25e0c0f_ligand_2.pdbqt
 12 12 0 0 0
SMALL
GASTEIGER

@<TRIPOS>ATOM
      1  C          8.2770    0.1770   -2.1900 C.3     1  UNL1        0.1270
      2  C          9.3900    0.3480   -1.2390 C.2     1  UNL1        0.3030
      3  O          9.4530   -0.4050   -0.2290 O.2     1  UNL1       -0.2520
      4  O         10.3850    1.3190   -1.4200 O.3     1  UNL1       -0.4810
      5  H         11.2680    1.2000   -0.9420 H       1  UNL1        0.2960
      6  C          7.1170   -0.5930   -1.5840 C.3     1  UNL1        0.0470
      7  C          6.3470    0.2590   -0.6400 C.2     1  UNL1       -0.0470
      8  C          6.1050   -0.1640    0.6590 C.2     1  UNL1        0.0040
      9  C          5.8290    1.4910   -0.9970 C.2     1  UNL1        0.0040
     10  C          5.3860    0.5970    1.5520 C.2     1  UNL1        0.0000
     11  C          5.1100    2.2520   -0.1000 C.2     1  UNL1        0.0000
     12  C          4.8730    1.8250    1.1870 C.2     1  UNL1        0.0000
@<TRIPOS>BOND
     1     1     6    1
     2     1     2    1
     3     6     7    1
     4     4     2    1
     5     4     5    1
     6     2     3    2
     7     9     7    2
     8     9    11    1
     9     7     8    1
    10    11    12    2
    11     8    10    2
    12    12    10    1
