@<TRIPOS>MOLECULE
/home/cewinharhar/GITHUB/reincatalyze/data/processed/docking_pred/2023-Apr-25-2248_maxeplen10_maxtrainstep1000_exh16_gamma099_lrac3e-4_lrcr1e-3/b9a0748b4c4cb53be71f33acfe76cbadf25e0c0f_ligand_2.pdbqt
 12 12 0 0 0
SMALL
GASTEIGER

@<TRIPOS>ATOM
      1  C          8.3800   -0.5820   -2.2040 C.3     1  UNL1        0.1270
      2  C          8.3850   -1.8820   -2.8980 C.2     1  UNL1        0.3030
      3  O          7.2860   -2.4070   -3.2230 O.2     1  UNL1       -0.2520
      4  O          9.5730   -2.5590   -3.2110 O.3     1  UNL1       -0.4810
      5  H          9.5180   -3.5300   -3.4860 H       1  UNL1        0.2960
      6  C          6.9940    0.0350   -2.1520 C.3     1  UNL1        0.0470
      7  C          6.4800    0.0710   -0.7580 C.2     1  UNL1       -0.0470
      8  C          5.8540    1.2060   -0.2630 C.2     1  UNL1        0.0040
      9  C          6.6000   -0.9980    0.1120 C.2     1  UNL1        0.0040
     10  C          5.3770    1.2740    1.0260 C.2     1  UNL1        0.0000
     11  C          6.1220   -0.9280    1.4030 C.2     1  UNL1        0.0000
     12  C          5.5030    0.2020    1.8870 C.2     1  UNL1        0.0000
@<TRIPOS>BOND
     1     5     4    1
     2     3     2    2
     3     4     2    1
     4     2     1    1
     5     1     6    1
     6     6     7    1
     7     7     8    2
     8     7     9    1
     9     8    10    1
    10     9    11    2
    11    10    12    2
    12    11    12    1
