@<TRIPOS>MOLECULE
/home/cewinharhar/GITHUB/reincatalyze/data/processed/docking_pred/2023-Apr-25-2248_maxeplen10_maxtrainstep1000_exh16_gamma099_lrac3e-4_lrcr1e-3/b9a0748b4c4cb53be71f33acfe76cbadf25e0c0f_ligand_2.pdbqt
 12 12 0 0 0
SMALL
GASTEIGER

@<TRIPOS>ATOM
      1  C          5.5840    2.8550   -0.0030 C.3     1  UNL1        0.1270
      2  C          6.2920    3.8650    0.8030 C.2     1  UNL1        0.3030
      3  O          6.9440    4.7700    0.2160 O.2     1  UNL1       -0.2520
      4  O          6.2650    3.8560    2.2050 O.3     1  UNL1       -0.4810
      5  H          6.5460    3.0130    2.6890 H       1  UNL1        0.2960
      6  C          4.8870    1.8180    0.8590 C.3     1  UNL1        0.0470
      7  C          5.6980    0.5770    0.9610 C.2     1  UNL1       -0.0470
      8  C          6.4370    0.1240   -0.1220 C.2     1  UNL1        0.0040
      9  C          5.7550   -0.1870    2.1120 C.2     1  UNL1        0.0040
     10  C          7.1900   -1.0260   -0.0630 C.2     1  UNL1        0.0000
     11  C          6.5100   -1.3390    2.1700 C.2     1  UNL1        0.0000
     12  C          7.2390   -1.7830    1.0900 C.2     1  UNL1        0.0000
@<TRIPOS>BOND
     1     8    10    1
     2     8     7    2
     3    10    12    2
     4     1     2    1
     5     1     6    1
     6     3     2    2
     7     2     4    1
     8     6     7    1
     9     7     9    1
    10    12    11    1
    11     9    11    2
    12     4     5    1
