@<TRIPOS>MOLECULE
/home/cewinharhar/GITHUB/reincatalyze/data/processed/docking_pred/2023-Apr-25-2248_maxeplen10_maxtrainstep1000_exh16_gamma099_lrac3e-4_lrcr1e-3/b9a0748b4c4cb53be71f33acfe76cbadf25e0c0f_ligand_2.pdbqt
 12 12 0 0 0
SMALL
GASTEIGER

@<TRIPOS>ATOM
      1  C          5.0240    1.7370    0.7260 C.3     1  UNL1        0.1270
      2  C          4.4720    1.0930    1.9310 C.2     1  UNL1        0.3030
      3  O          5.1360    0.1850    2.4990 O.2     1  UNL1       -0.2520
      4  O          3.2300    1.4580    2.4710 O.3     1  UNL1       -0.4810
      5  H          2.5130    1.8010    1.8470 H       1  UNL1        0.2960
      6  C          6.5370    1.8460    0.7750 C.3     1  UNL1        0.0470
      7  C          7.1640    1.0660   -0.3240 C.2     1  UNL1       -0.0470
      8  C          6.4300    0.1260   -1.0330 C.2     1  UNL1        0.0040
      9  C          8.4880    1.2220   -0.6920 C.2     1  UNL1        0.0040
     10  C          6.9830   -0.6190   -2.0490 C.2     1  UNL1        0.0000
     11  C          9.0410    0.4750   -1.7100 C.2     1  UNL1        0.0000
     12  C          8.3060   -0.4570   -2.4070 C.2     1  UNL1        0.0000
@<TRIPOS>BOND
     1    12    10    2
     2    12    11    1
     3    10     8    1
     4    11     9    2
     5     8     7    2
     6     9     7    1
     7     7     6    1
     8     1     6    1
     9     1     2    1
    10     5     4    1
    11     2     4    1
    12     2     3    2
