@<TRIPOS>MOLECULE
/home/cewinharhar/GITHUB/reincatalyze/data/processed/docking_pred/2023-Apr-25-2248_maxeplen10_maxtrainstep1000_exh16_gamma099_lrac3e-4_lrcr1e-3/ba254a63d1f23417312e0ffefa4719b754a9a4bf_ligand_2.pdbqt
 12 12 0 0 0
SMALL
GASTEIGER

@<TRIPOS>ATOM
      1  C          8.4210   -0.6690   -2.1030 C.3     1  UNL1        0.1270
      2  C          8.4470   -1.9170   -2.8870 C.2     1  UNL1        0.3030
      3  O          9.5500   -2.4950   -3.0820 O.2     1  UNL1       -0.2520
      4  O          7.2830   -2.4860   -3.4250 O.3     1  UNL1       -0.4810
      5  H          6.9250   -2.1210   -4.2970 H       1  UNL1        0.2960
      6  C          7.0560   -0.0060   -2.1240 C.3     1  UNL1        0.0470
      7  C          6.4840    0.0810   -0.7550 C.2     1  UNL1       -0.0470
      8  C          5.8100    1.2200   -0.3400 C.2     1  UNL1        0.0040
      9  C          6.5970   -0.9420    0.1690 C.2     1  UNL1        0.0040
     10  C          5.2790    1.3350    0.9240 C.2     1  UNL1        0.0000
     11  C          6.0650   -0.8250    1.4350 C.2     1  UNL1        0.0000
     12  C          5.3980    0.3090    1.8390 C.2     1  UNL1        0.0000
@<TRIPOS>BOND
     1     5     4    1
     2     4     2    1
     3     3     2    2
     4     2     1    1
     5     6     1    1
     6     6     7    1
     7     7     8    2
     8     7     9    1
     9     8    10    1
    10     9    11    2
    11    10    12    2
    12    11    12    1
