@<TRIPOS>MOLECULE
/home/cewinharhar/GITHUB/reincatalyze/data/processed/docking_pred/2023-Apr-25-2248_maxeplen10_maxtrainstep1000_exh16_gamma099_lrac3e-4_lrcr1e-3/ba254a63d1f23417312e0ffefa4719b754a9a4bf_ligand_2.pdbqt
 12 12 0 0 0
SMALL
GASTEIGER

@<TRIPOS>ATOM
      1  C          7.3270   -1.2540   -2.1860 C.3     1  UNL1        0.1270
      2  C          8.7680   -1.3170   -2.4890 C.2     1  UNL1        0.3030
      3  O          9.2090   -2.2840   -3.1680 O.2     1  UNL1       -0.2520
      4  O          9.6680   -0.3370   -2.0490 O.3     1  UNL1       -0.4810
      5  H          9.3570    0.3270   -1.3530 H       1  UNL1        0.2960
      6  C          7.0420   -1.4580   -0.7090 C.3     1  UNL1        0.0470
      7  C          6.3390   -0.2810   -0.1350 C.2     1  UNL1       -0.0470
      8  C          5.8830   -0.2990    1.1760 C.2     1  UNL1        0.0040
      9  C          6.0960    0.8720   -0.8590 C.2     1  UNL1        0.0040
     10  C          5.2210    0.7710    1.7330 C.2     1  UNL1        0.0000
     11  C          5.4330    1.9430   -0.2990 C.2     1  UNL1        0.0000
     12  C          4.9820    1.9170    1.0010 C.2     1  UNL1        0.0000
@<TRIPOS>BOND
     1     3     2    2
     2     2     1    1
     3     2     4    1
     4     1     6    1
     5     4     5    1
     6     9    11    1
     7     9     7    2
     8     6     7    1
     9    11    12    2
    10     7     8    1
    11    12    10    1
    12     8    10    2
