@<TRIPOS>MOLECULE
/home/cewinharhar/GITHUB/reincatalyze/data/processed/docking_pred/2023-Apr-25-2248_maxeplen10_maxtrainstep1000_exh16_gamma099_lrac3e-4_lrcr1e-3/ba254a63d1f23417312e0ffefa4719b754a9a4bf_ligand_2.pdbqt
 12 12 0 0 0
SMALL
GASTEIGER

@<TRIPOS>ATOM
      1  C          8.1810   -1.6740    1.1480 C.3     1  UNL1        0.1270
      2  C          8.5120   -2.8510    0.3260 C.2     1  UNL1        0.3030
      3  O          9.1910   -3.7830    0.8370 O.2     1  UNL1       -0.2520
      4  O          8.0970   -2.9730   -1.0080 O.3     1  UNL1       -0.4810
      5  H          8.3360   -2.2360   -1.6580 H       1  UNL1        0.2960
      6  C          6.6890   -1.5540    1.4030 C.3     1  UNL1        0.0470
      7  C          6.1560   -0.2780    0.8570 C.2     1  UNL1       -0.0470
      8  C          6.4180    0.0950   -0.4530 C.2     1  UNL1        0.0040
      9  C          5.3930    0.5970    1.6080 C.2     1  UNL1        0.0040
     10  C          5.9480    1.2730   -0.9850 C.2     1  UNL1        0.0000
     11  C          4.9230    1.7770    1.0740 C.2     1  UNL1        0.0000
     12  C          5.1890    2.1410   -0.2270 C.2     1  UNL1        0.0000
@<TRIPOS>BOND
     1     5     4    1
     2     4     2    1
     3    10     8    1
     4    10    12    2
     5     8     7    2
     6    12    11    1
     7     2     3    2
     8     2     1    1
     9     7     6    1
    10     7     9    1
    11    11     9    2
    12     1     6    1
