@<TRIPOS>MOLECULE
/home/cewinharhar/GITHUB/reincatalyze/data/processed/docking_pred/2023-Apr-25-2248_maxeplen10_maxtrainstep1000_exh16_gamma099_lrac3e-4_lrcr1e-3/ba254a63d1f23417312e0ffefa4719b754a9a4bf_ligand_2.pdbqt
 12 12 0 0 0
SMALL
GASTEIGER

@<TRIPOS>ATOM
      1  C          8.4030   -0.6400   -2.1570 C.3     1  UNL1        0.1270
      2  C          8.4220   -1.9140   -2.8970 C.2     1  UNL1        0.3030
      3  O          7.3280   -2.4430   -3.2330 O.2     1  UNL1       -0.2520
      4  O          9.6170   -2.5600   -3.2430 O.3     1  UNL1       -0.4810
      5  H         10.0020   -3.2410   -2.6020 H       1  UNL1        0.2960
      6  C          7.0250   -0.0010   -2.1490 C.3     1  UNL1        0.0470
      7  C          6.4910    0.0970   -0.7660 C.2     1  UNL1       -0.0470
      8  C          6.6170   -0.9640    0.1190 C.2     1  UNL1        0.0040
      9  C          5.8420    1.2230   -0.2920 C.2     1  UNL1        0.0040
     10  C          6.1240   -0.9090    1.4020 C.2     1  UNL1        0.0000
     11  C          5.3490    1.2770    0.9940 C.2     1  UNL1        0.0000
     12  C          5.4770    0.2190    1.8650 C.2     1  UNL1        0.0000
@<TRIPOS>BOND
     1     4     2    1
     2     4     5    1
     3     3     2    2
     4     2     1    1
     5     1     6    1
     6     6     7    1
     7     7     9    2
     8     7     8    1
     9     9    11    1
    10     8    10    2
    11    11    12    2
    12    10    12    1
