@<TRIPOS>MOLECULE
/home/cewinharhar/GITHUB/reincatalyze/data/processed/docking_pred/2023-Apr-25-2248_maxeplen10_maxtrainstep1000_exh16_gamma099_lrac3e-4_lrcr1e-3/ba254a63d1f23417312e0ffefa4719b754a9a4bf_ligand_2.pdbqt
 12 12 0 0 0
SMALL
GASTEIGER

@<TRIPOS>ATOM
      1  C          5.0020    1.8010    0.7360 C.3     1  UNL1        0.1270
      2  C          4.4610    1.1200    1.9250 C.2     1  UNL1        0.3030
      3  O          5.1360    0.2010    2.4640 O.2     1  UNL1       -0.2520
      4  O          3.2200    1.4610    2.4820 O.3     1  UNL1       -0.4810
      5  H          2.4310    0.8510    2.3140 H       1  UNL1        0.2960
      6  C          6.5150    1.9190    0.7800 C.3     1  UNL1        0.0470
      7  C          7.1430    1.1390   -0.3170 C.2     1  UNL1       -0.0470
      8  C          6.3930    0.2450   -1.0690 C.2     1  UNL1        0.0040
      9  C          8.4830    1.2460   -0.6410 C.2     1  UNL1        0.0040
     10  C          6.9470   -0.5000   -2.0840 C.2     1  UNL1        0.0000
     11  C          9.0360    0.5000   -1.6590 C.2     1  UNL1        0.0000
     12  C          8.2860   -0.3860   -2.3990 C.2     1  UNL1        0.0000
@<TRIPOS>BOND
     1    12    10    2
     2    12    11    1
     3    10     8    1
     4    11     9    2
     5     8     7    2
     6     9     7    1
     7     7     6    1
     8     1     6    1
     9     1     2    1
    10     2     3    2
    11     2     4    1
    12     5     4    1
