MODEL 1
REMARK VINA RESULT:      -7.3      0.000      0.000
REMARK SMILES O=C(O)CCc1ccccc1
REMARK SMILES IDX 4 1 2 2 1 3 3 4 5 6 6 7 7 8 11 9 8 10 10 11 9 12
REMARK H PARENT 3 5
REMARK Flexibility Score: inf
ROOT
ATOM      1  C   UNL     1       8.421  -0.669  -2.103  1.00  0.00     0.127 C 
ENDROOT
BRANCH   1   2
ATOM      2  C   UNL     1       8.447  -1.917  -2.887  1.00  0.00     0.303 C 
ATOM      3  O   UNL     1       9.550  -2.495  -3.082  1.00  0.00    -0.252 OA
BRANCH   2   4
ATOM      4  O   UNL     1       7.283  -2.486  -3.425  1.00  0.00    -0.481 OA
ATOM      5  H   UNL     1       6.925  -2.121  -4.297  1.00  0.00     0.296 HD
ENDBRANCH   2   4
ENDBRANCH   1   2
BRANCH   1   6
ATOM      6  C   UNL     1       7.056  -0.006  -2.124  1.00  0.00     0.047 C 
BRANCH   6   7
ATOM      7  C   UNL     1       6.484   0.081  -0.755  1.00  0.00    -0.047 A 
ATOM      8  C   UNL     1       5.810   1.220  -0.340  1.00  0.00     0.004 A 
ATOM      9  C   UNL     1       6.597  -0.942   0.169  1.00  0.00     0.004 A 
ATOM     10  C   UNL     1       5.279   1.335   0.924  1.00  0.00     0.000 A 
ATOM     11  C   UNL     1       6.065  -0.825   1.435  1.00  0.00     0.000 A 
ATOM     12  C   UNL     1       5.398   0.309   1.839  1.00  0.00     0.000 A 
ENDBRANCH   6   7
ENDBRANCH   1   6
TORSDOF 4
ENDMDL
MODEL 2
REMARK VINA RESULT:      -7.2      0.108      1.724
REMARK SMILES O=C(O)CCc1ccccc1
REMARK SMILES IDX 4 1 2 2 1 3 3 4 5 6 6 7 7 8 11 9 8 10 10 11 9 12
REMARK H PARENT 3 5
REMARK Flexibility Score: inf
ROOT
ATOM      1  C   UNL     1       8.403  -0.640  -2.157  1.00  0.00     0.127 C 
ENDROOT
BRANCH   1   2
ATOM      2  C   UNL     1       8.422  -1.914  -2.897  1.00  0.00     0.303 C 
ATOM      3  O   UNL     1       7.328  -2.443  -3.233  1.00  0.00    -0.252 OA
BRANCH   2   4
ATOM      4  O   UNL     1       9.617  -2.560  -3.243  1.00  0.00    -0.481 OA
ATOM      5  H   UNL     1      10.002  -3.241  -2.602  1.00  0.00     0.296 HD
ENDBRANCH   2   4
ENDBRANCH   1   2
BRANCH   1   6
ATOM      6  C   UNL     1       7.025  -0.001  -2.149  1.00  0.00     0.047 C 
BRANCH   6   7
ATOM      7  C   UNL     1       6.491   0.097  -0.766  1.00  0.00    -0.047 A 
ATOM      8  C   UNL     1       6.617  -0.964   0.119  1.00  0.00     0.004 A 
ATOM      9  C   UNL     1       5.842   1.223  -0.292  1.00  0.00     0.004 A 
ATOM     10  C   UNL     1       6.124  -0.909   1.402  1.00  0.00     0.000 A 
ATOM     11  C   UNL     1       5.349   1.277   0.994  1.00  0.00     0.000 A 
ATOM     12  C   UNL     1       5.477   0.219   1.865  1.00  0.00     0.000 A 
ENDBRANCH   6   7
ENDBRANCH   1   6
TORSDOF 4
ENDMDL
MODEL 3
REMARK VINA RESULT:      -6.8      3.396      5.097
REMARK SMILES O=C(O)CCc1ccccc1
REMARK SMILES IDX 4 1 2 2 1 3 3 4 5 6 6 7 7 8 11 9 8 10 10 11 9 12
REMARK H PARENT 3 5
REMARK Flexibility Score: inf
ROOT
ATOM      1  C   UNL     1       5.002   1.801   0.736  1.00  0.00     0.127 C 
ENDROOT
BRANCH   1   2
ATOM      2  C   UNL     1       4.461   1.120   1.925  1.00  0.00     0.303 C 
ATOM      3  O   UNL     1       5.136   0.201   2.464  1.00  0.00    -0.252 OA
BRANCH   2   4
ATOM      4  O   UNL     1       3.220   1.461   2.482  1.00  0.00    -0.481 OA
ATOM      5  H   UNL     1       2.431   0.851   2.314  1.00  0.00     0.296 HD
ENDBRANCH   2   4
ENDBRANCH   1   2
BRANCH   1   6
ATOM      6  C   UNL     1       6.515   1.919   0.780  1.00  0.00     0.047 C 
BRANCH   6   7
ATOM      7  C   UNL     1       7.143   1.139  -0.317  1.00  0.00    -0.047 A 
ATOM      8  C   UNL     1       6.393   0.245  -1.069  1.00  0.00     0.004 A 
ATOM      9  C   UNL     1       8.483   1.246  -0.641  1.00  0.00     0.004 A 
ATOM     10  C   UNL     1       6.947  -0.500  -2.084  1.00  0.00     0.000 A 
ATOM     11  C   UNL     1       9.036   0.500  -1.659  1.00  0.00     0.000 A 
ATOM     12  C   UNL     1       8.286  -0.386  -2.399  1.00  0.00     0.000 A 
ENDBRANCH   6   7
ENDBRANCH   1   6
TORSDOF 4
ENDMDL
MODEL 4
REMARK VINA RESULT:      -6.7      1.047      1.998
REMARK SMILES O=C(O)CCc1ccccc1
REMARK SMILES IDX 4 1 2 2 1 3 3 4 5 6 6 7 7 8 11 9 8 10 10 11 9 12
REMARK H PARENT 3 5
REMARK Flexibility Score: inf
ROOT
ATOM      1  C   UNL     1       7.327  -1.254  -2.186  1.00  0.00     0.127 C 
ENDROOT
BRANCH   1   2
ATOM      2  C   UNL     1       8.768  -1.317  -2.489  1.00  0.00     0.303 C 
ATOM      3  O   UNL     1       9.209  -2.284  -3.168  1.00  0.00    -0.252 OA
BRANCH   2   4
ATOM      4  O   UNL     1       9.668  -0.337  -2.049  1.00  0.00    -0.481 OA
ATOM      5  H   UNL     1       9.357   0.327  -1.353  1.00  0.00     0.296 HD
ENDBRANCH   2   4
ENDBRANCH   1   2
BRANCH   1   6
ATOM      6  C   UNL     1       7.042  -1.458  -0.709  1.00  0.00     0.047 C 
BRANCH   6   7
ATOM      7  C   UNL     1       6.339  -0.281  -0.135  1.00  0.00    -0.047 A 
ATOM      8  C   UNL     1       5.883  -0.299   1.176  1.00  0.00     0.004 A 
ATOM      9  C   UNL     1       6.096   0.872  -0.859  1.00  0.00     0.004 A 
ATOM     10  C   UNL     1       5.221   0.771   1.733  1.00  0.00     0.000 A 
ATOM     11  C   UNL     1       5.433   1.943  -0.299  1.00  0.00     0.000 A 
ATOM     12  C   UNL     1       4.982   1.917   1.001  1.00  0.00     0.000 A 
ENDBRANCH   6   7
ENDBRANCH   1   6
TORSDOF 4
ENDMDL
MODEL 5
REMARK VINA RESULT:      -6.6      1.882      2.893
REMARK SMILES O=C(O)CCc1ccccc1
REMARK SMILES IDX 4 1 2 2 1 3 3 4 5 6 6 7 7 8 11 9 8 10 10 11 9 12
REMARK H PARENT 3 5
REMARK Flexibility Score: inf
ROOT
ATOM      1  C   UNL     1       8.181  -1.674   1.148  1.00  0.00     0.127 C 
ENDROOT
BRANCH   1   2
ATOM      2  C   UNL     1       8.512  -2.851   0.326  1.00  0.00     0.303 C 
ATOM      3  O   UNL     1       9.191  -3.783   0.837  1.00  0.00    -0.252 OA
BRANCH   2   4
ATOM      4  O   UNL     1       8.097  -2.973  -1.008  1.00  0.00    -0.481 OA
ATOM      5  H   UNL     1       8.336  -2.236  -1.658  1.00  0.00     0.296 HD
ENDBRANCH   2   4
ENDBRANCH   1   2
BRANCH   1   6
ATOM      6  C   UNL     1       6.689  -1.554   1.403  1.00  0.00     0.047 C 
BRANCH   6   7
ATOM      7  C   UNL     1       6.156  -0.278   0.857  1.00  0.00    -0.047 A 
ATOM      8  C   UNL     1       6.418   0.095  -0.453  1.00  0.00     0.004 A 
ATOM      9  C   UNL     1       5.393   0.597   1.608  1.00  0.00     0.004 A 
ATOM     10  C   UNL     1       5.948   1.273  -0.985  1.00  0.00     0.000 A 
ATOM     11  C   UNL     1       4.923   1.777   1.074  1.00  0.00     0.000 A 
ATOM     12  C   UNL     1       5.189   2.141  -0.227  1.00  0.00     0.000 A 
ENDBRANCH   6   7
ENDBRANCH   1   6
TORSDOF 4
ENDMDL
