@<TRIPOS>MOLECULE
/home/cewinharhar/GITHUB/reincatalyze/data/processed/docking_pred/2023-Apr-25-2248_maxeplen10_maxtrainstep1000_exh16_gamma099_lrac3e-4_lrcr1e-3/bae690ffab80532c90b6f683492bf7de3cce581e_ligand_2.pdbqt
 12 12 0 0 0
SMALL
GASTEIGER

@<TRIPOS>ATOM
      1  C          4.9960    1.7880    0.7270 C.3     1  UNL1        0.1270
      2  C          4.4710    1.1160    1.9280 C.2     1  UNL1        0.3030
      3  O          5.1610    0.2130    2.4760 O.2     1  UNL1       -0.2520
      4  O          3.2280    1.4460    2.4880 O.3     1  UNL1       -0.4810
      5  H          2.4280    1.5270    1.8740 H       1  UNL1        0.2960
      6  C          6.5090    1.9040    0.7490 C.3     1  UNL1        0.0470
      7  C          7.1220    1.0910   -0.3340 C.2     1  UNL1       -0.0470
      8  C          8.4660    1.2280   -0.6480 C.2     1  UNL1        0.0040
      9  C          6.4010    0.1790   -1.0840 C.2     1  UNL1        0.0040
     10  C          9.0600    0.4980   -1.6520 C.2     1  UNL1        0.0000
     11  C          6.9980   -0.5510   -2.0890 C.2     1  UNL1        0.0000
     12  C          8.3320   -0.4090   -2.3950 C.2     1  UNL1        0.0000
@<TRIPOS>BOND
     1    12    11    2
     2    12    10    1
     3    11     9    1
     4    10     8    2
     5     9     7    2
     6     8     7    1
     7     7     6    1
     8     1     6    1
     9     1     2    1
    10     5     4    1
    11     2     3    2
    12     2     4    1
