MODEL 1
REMARK VINA RESULT:      -7.3      0.000      0.000
REMARK SMILES O=C(O)CCc1ccccc1
REMARK SMILES IDX 4 1 2 2 1 3 3 4 5 6 6 7 7 8 11 9 8 10 10 11 9 12
REMARK H PARENT 3 5
REMARK Flexibility Score: inf
ROOT
ATOM      1  C   UNL     1       8.409  -0.714  -2.056  1.00  0.00     0.127 C 
ENDROOT
BRANCH   1   2
ATOM      2  C   UNL     1       8.437  -1.931  -2.887  1.00  0.00     0.303 C 
ATOM      3  O   UNL     1       9.542  -2.494  -3.113  1.00  0.00    -0.252 OA
BRANCH   2   4
ATOM      4  O   UNL     1       7.272  -2.488  -3.437  1.00  0.00    -0.481 OA
ATOM      5  H   UNL     1       6.604  -2.921  -2.815  1.00  0.00     0.296 HD
ENDBRANCH   2   4
ENDBRANCH   1   2
BRANCH   1   6
ATOM      6  C   UNL     1       7.065  -0.012  -2.111  1.00  0.00     0.047 C 
BRANCH   6   7
ATOM      7  C   UNL     1       6.479   0.123  -0.752  1.00  0.00    -0.047 A 
ATOM      8  C   UNL     1       6.589  -0.906   0.172  1.00  0.00     0.004 A 
ATOM      9  C   UNL     1       5.796   1.253  -0.340  1.00  0.00     0.004 A 
ATOM     10  C   UNL     1       6.049  -0.815   1.434  1.00  0.00     0.000 A 
ATOM     11  C   UNL     1       5.255   1.342   0.924  1.00  0.00     0.000 A 
ATOM     12  C   UNL     1       5.368   0.316   1.835  1.00  0.00     0.000 A 
ENDBRANCH   6   7
ENDBRANCH   1   6
TORSDOF 4
ENDMDL
MODEL 2
REMARK VINA RESULT:      -7.3      0.114      1.424
REMARK SMILES O=C(O)CCc1ccccc1
REMARK SMILES IDX 4 1 2 2 1 3 3 4 5 6 6 7 7 8 11 9 8 10 10 11 9 12
REMARK H PARENT 3 5
REMARK Flexibility Score: inf
ROOT
ATOM      1  C   UNL     1       8.415  -0.611  -2.199  1.00  0.00     0.127 C 
ENDROOT
BRANCH   1   2
ATOM      2  C   UNL     1       8.437  -1.897  -2.918  1.00  0.00     0.303 C 
ATOM      3  O   UNL     1       9.537  -2.493  -3.073  1.00  0.00    -0.252 OA
BRANCH   2   4
ATOM      4  O   UNL     1       7.274  -2.484  -3.436  1.00  0.00    -0.481 OA
ATOM      5  H   UNL     1       6.826  -2.050  -4.231  1.00  0.00     0.296 HD
ENDBRANCH   2   4
ENDBRANCH   1   2
BRANCH   1   6
ATOM      6  C   UNL     1       7.028   0.004  -2.166  1.00  0.00     0.047 C 
BRANCH   6   7
ATOM      7  C   UNL     1       6.501   0.053  -0.777  1.00  0.00    -0.047 A 
ATOM      8  C   UNL     1       5.864   1.190  -0.301  1.00  0.00     0.004 A 
ATOM      9  C   UNL     1       6.620  -1.004   0.107  1.00  0.00     0.004 A 
ATOM     10  C   UNL     1       5.374   1.271   0.982  1.00  0.00     0.000 A 
ATOM     11  C   UNL     1       6.129  -0.922   1.392  1.00  0.00     0.000 A 
ATOM     12  C   UNL     1       5.499   0.210   1.857  1.00  0.00     0.000 A 
ENDBRANCH   6   7
ENDBRANCH   1   6
TORSDOF 4
ENDMDL
MODEL 3
REMARK VINA RESULT:      -6.9      0.671      1.476
REMARK SMILES O=C(O)CCc1ccccc1
REMARK SMILES IDX 4 1 2 2 1 3 3 4 5 6 6 7 7 8 11 9 8 10 10 11 9 12
REMARK H PARENT 3 5
REMARK Flexibility Score: inf
ROOT
ATOM      1  C   UNL     1       8.321  -0.680  -2.123  1.00  0.00     0.127 C 
ENDROOT
BRANCH   1   2
ATOM      2  C   UNL     1       8.363  -1.921  -2.917  1.00  0.00     0.303 C 
ATOM      3  O   UNL     1       7.280  -2.437  -3.303  1.00  0.00    -0.252 OA
BRANCH   2   4
ATOM      4  O   UNL     1       9.569  -2.548  -3.261  1.00  0.00    -0.481 OA
ATOM      5  H   UNL     1       9.605  -3.558  -3.263  1.00  0.00     0.296 HD
ENDBRANCH   2   4
ENDBRANCH   1   2
BRANCH   1   6
ATOM      6  C   UNL     1       8.083  -0.951  -0.648  1.00  0.00     0.047 C 
BRANCH   6   7
ATOM      7  C   UNL     1       7.012  -0.071  -0.111  1.00  0.00    -0.047 A 
ATOM      8  C   UNL     1       6.548  -0.232   1.187  1.00  0.00     0.004 A 
ATOM      9  C   UNL     1       6.420   0.930  -0.859  1.00  0.00     0.004 A 
ATOM     10  C   UNL     1       5.550   0.558   1.710  1.00  0.00     0.000 A 
ATOM     11  C   UNL     1       5.421   1.721  -0.334  1.00  0.00     0.000 A 
ATOM     12  C   UNL     1       4.965   1.554   0.954  1.00  0.00     0.000 A 
ENDBRANCH   6   7
ENDBRANCH   1   6
TORSDOF 4
ENDMDL
MODEL 4
REMARK VINA RESULT:      -6.8      3.394      5.102
REMARK SMILES O=C(O)CCc1ccccc1
REMARK SMILES IDX 4 1 2 2 1 3 3 4 5 6 6 7 7 8 11 9 8 10 10 11 9 12
REMARK H PARENT 3 5
REMARK Flexibility Score: inf
ROOT
ATOM      1  C   UNL     1       4.996   1.788   0.727  1.00  0.00     0.127 C 
ENDROOT
BRANCH   1   2
ATOM      2  C   UNL     1       4.471   1.116   1.928  1.00  0.00     0.303 C 
ATOM      3  O   UNL     1       5.161   0.213   2.476  1.00  0.00    -0.252 OA
BRANCH   2   4
ATOM      4  O   UNL     1       3.228   1.446   2.488  1.00  0.00    -0.481 OA
ATOM      5  H   UNL     1       2.428   1.527   1.874  1.00  0.00     0.296 HD
ENDBRANCH   2   4
ENDBRANCH   1   2
BRANCH   1   6
ATOM      6  C   UNL     1       6.509   1.904   0.749  1.00  0.00     0.047 C 
BRANCH   6   7
ATOM      7  C   UNL     1       7.122   1.091  -0.334  1.00  0.00    -0.047 A 
ATOM      8  C   UNL     1       8.466   1.228  -0.648  1.00  0.00     0.004 A 
ATOM      9  C   UNL     1       6.401   0.179  -1.084  1.00  0.00     0.004 A 
ATOM     10  C   UNL     1       9.060   0.498  -1.652  1.00  0.00     0.000 A 
ATOM     11  C   UNL     1       6.998  -0.551  -2.089  1.00  0.00     0.000 A 
ATOM     12  C   UNL     1       8.332  -0.409  -2.395  1.00  0.00     0.000 A 
ENDBRANCH   6   7
ENDBRANCH   1   6
TORSDOF 4
ENDMDL
MODEL 5
REMARK VINA RESULT:      -6.6      1.965      2.888
REMARK SMILES O=C(O)CCc1ccccc1
REMARK SMILES IDX 4 1 2 2 1 3 3 4 5 6 6 7 7 8 11 9 8 10 10 11 9 12
REMARK H PARENT 3 5
REMARK Flexibility Score: inf
ROOT
ATOM      1  C   UNL     1       8.265  -1.674   1.185  1.00  0.00     0.127 C 
ENDROOT
BRANCH   1   2
ATOM      2  C   UNL     1       8.667  -2.894   0.463  1.00  0.00     0.303 C 
ATOM      3  O   UNL     1       9.399  -3.738   1.047  1.00  0.00    -0.252 OA
BRANCH   2   4
ATOM      4  O   UNL     1       8.262  -3.150  -0.855  1.00  0.00    -0.481 OA
ATOM      5  H   UNL     1       7.282  -3.061  -1.086  1.00  0.00     0.296 HD
ENDBRANCH   2   4
ENDBRANCH   1   2
BRANCH   1   6
ATOM      6  C   UNL     1       6.763  -1.602   1.397  1.00  0.00     0.047 C 
BRANCH   6   7
ATOM      7  C   UNL     1       6.210  -0.331   0.860  1.00  0.00    -0.047 A 
ATOM      8  C   UNL     1       6.472   0.059  -0.445  1.00  0.00     0.004 A 
ATOM      9  C   UNL     1       5.428   0.523   1.616  1.00  0.00     0.004 A 
ATOM     10  C   UNL     1       5.984   1.234  -0.969  1.00  0.00     0.000 A 
ATOM     11  C   UNL     1       4.940   1.700   1.090  1.00  0.00     0.000 A 
ATOM     12  C   UNL     1       5.205   2.081  -0.206  1.00  0.00     0.000 A 
ENDBRANCH   6   7
ENDBRANCH   1   6
TORSDOF 4
ENDMDL
