@<TRIPOS>MOLECULE
/home/cewinharhar/GITHUB/reincatalyze/data/processed/docking_pred/2023-Apr-25-2248_maxeplen10_maxtrainstep1000_exh16_gamma099_lrac3e-4_lrcr1e-3/bae690ffab80532c90b6f683492bf7de3cce581e_ligand_2.pdbqt
 12 12 0 0 0
SMALL
GASTEIGER

@<TRIPOS>ATOM
      1  C          8.4090   -0.7140   -2.0560 C.3     1  UNL1        0.1270
      2  C          8.4370   -1.9310   -2.8870 C.2     1  UNL1        0.3030
      3  O          9.5420   -2.4940   -3.1130 O.2     1  UNL1       -0.2520
      4  O          7.2720   -2.4880   -3.4370 O.3     1  UNL1       -0.4810
      5  H          6.6040   -2.9210   -2.8150 H       1  UNL1        0.2960
      6  C          7.0650   -0.0120   -2.1110 C.3     1  UNL1        0.0470
      7  C          6.4790    0.1230   -0.7520 C.2     1  UNL1       -0.0470
      8  C          6.5890   -0.9060    0.1720 C.2     1  UNL1        0.0040
      9  C          5.7960    1.2530   -0.3400 C.2     1  UNL1        0.0040
     10  C          6.0490   -0.8150    1.4340 C.2     1  UNL1        0.0000
     11  C          5.2550    1.3420    0.9240 C.2     1  UNL1        0.0000
     12  C          5.3680    0.3160    1.8350 C.2     1  UNL1        0.0000
@<TRIPOS>BOND
     1     4     2    1
     2     4     5    1
     3     3     2    2
     4     2     1    1
     5     6     1    1
     6     6     7    1
     7     7     9    2
     8     7     8    1
     9     9    11    1
    10     8    10    2
    11    11    12    2
    12    10    12    1
