@<TRIPOS>MOLECULE
/home/cewinharhar/GITHUB/reincatalyze/data/processed/docking_pred/2023-Apr-25-2248_maxeplen10_maxtrainstep1000_exh16_gamma099_lrac3e-4_lrcr1e-3/bae690ffab80532c90b6f683492bf7de3cce581e_ligand_2.pdbqt
 12 12 0 0 0
SMALL
GASTEIGER

@<TRIPOS>ATOM
      1  C          8.4150   -0.6110   -2.1990 C.3     1  UNL1        0.1270
      2  C          8.4370   -1.8970   -2.9180 C.2     1  UNL1        0.3030
      3  O          9.5370   -2.4930   -3.0730 O.2     1  UNL1       -0.2520
      4  O          7.2740   -2.4840   -3.4360 O.3     1  UNL1       -0.4810
      5  H          6.8260   -2.0500   -4.2310 H       1  UNL1        0.2960
      6  C          7.0280    0.0040   -2.1660 C.3     1  UNL1        0.0470
      7  C          6.5010    0.0530   -0.7770 C.2     1  UNL1       -0.0470
      8  C          5.8640    1.1900   -0.3010 C.2     1  UNL1        0.0040
      9  C          6.6200   -1.0040    0.1070 C.2     1  UNL1        0.0040
     10  C          5.3740    1.2710    0.9820 C.2     1  UNL1        0.0000
     11  C          6.1290   -0.9220    1.3920 C.2     1  UNL1        0.0000
     12  C          5.4990    0.2100    1.8570 C.2     1  UNL1        0.0000
@<TRIPOS>BOND
     1     5     4    1
     2     4     2    1
     3     3     2    2
     4     2     1    1
     5     1     6    1
     6     6     7    1
     7     7     8    2
     8     7     9    1
     9     8    10    1
    10     9    11    2
    11    10    12    2
    12    11    12    1
