@<TRIPOS>MOLECULE
/home/cewinharhar/GITHUB/reincatalyze/data/processed/docking_pred/2023-Apr-25-2248_maxeplen10_maxtrainstep1000_exh16_gamma099_lrac3e-4_lrcr1e-3/bae690ffab80532c90b6f683492bf7de3cce581e_ligand_2.pdbqt
 12 12 0 0 0
SMALL
GASTEIGER

@<TRIPOS>ATOM
      1  C          8.3210   -0.6800   -2.1230 C.3     1  UNL1        0.1270
      2  C          8.3630   -1.9210   -2.9170 C.2     1  UNL1        0.3030
      3  O          7.2800   -2.4370   -3.3030 O.2     1  UNL1       -0.2520
      4  O          9.5690   -2.5480   -3.2610 O.3     1  UNL1       -0.4810
      5  H          9.6050   -3.5580   -3.2630 H       1  UNL1        0.2960
      6  C          8.0830   -0.9510   -0.6480 C.3     1  UNL1        0.0470
      7  C          7.0120   -0.0710   -0.1110 C.2     1  UNL1       -0.0470
      8  C          6.5480   -0.2320    1.1870 C.2     1  UNL1        0.0040
      9  C          6.4200    0.9300   -0.8590 C.2     1  UNL1        0.0040
     10  C          5.5500    0.5580    1.7100 C.2     1  UNL1        0.0000
     11  C          5.4210    1.7210   -0.3340 C.2     1  UNL1        0.0000
     12  C          4.9650    1.5540    0.9540 C.2     1  UNL1        0.0000
@<TRIPOS>BOND
     1     3     2    2
     2     5     4    1
     3     4     2    1
     4     2     1    1
     5     1     6    1
     6     9    11    1
     7     9     7    2
     8     6     7    1
     9    11    12    2
    10     7     8    1
    11    12    10    1
    12     8    10    2
