@<TRIPOS>MOLECULE
/home/cewinharhar/GITHUB/reincatalyze/data/processed/docking_pred/2023-Apr-25-2248_maxeplen10_maxtrainstep1000_exh16_gamma099_lrac3e-4_lrcr1e-3/bae690ffab80532c90b6f683492bf7de3cce581e_ligand_2.pdbqt
 12 12 0 0 0
SMALL
GASTEIGER

@<TRIPOS>ATOM
      1  C          8.2650   -1.6740    1.1850 C.3     1  UNL1        0.1270
      2  C          8.6670   -2.8940    0.4630 C.2     1  UNL1        0.3030
      3  O          9.3990   -3.7380    1.0470 O.2     1  UNL1       -0.2520
      4  O          8.2620   -3.1500   -0.8550 O.3     1  UNL1       -0.4810
      5  H          7.2820   -3.0610   -1.0860 H       1  UNL1        0.2960
      6  C          6.7630   -1.6020    1.3970 C.3     1  UNL1        0.0470
      7  C          6.2100   -0.3310    0.8600 C.2     1  UNL1       -0.0470
      8  C          6.4720    0.0590   -0.4450 C.2     1  UNL1        0.0040
      9  C          5.4280    0.5230    1.6160 C.2     1  UNL1        0.0040
     10  C          5.9840    1.2340   -0.9690 C.2     1  UNL1        0.0000
     11  C          4.9400    1.7000    1.0900 C.2     1  UNL1        0.0000
     12  C          5.2050    2.0810   -0.2060 C.2     1  UNL1        0.0000
@<TRIPOS>BOND
     1     5     4    1
     2    10     8    1
     3    10    12    2
     4     4     2    1
     5     8     7    2
     6    12    11    1
     7     2     3    2
     8     2     1    1
     9     7     6    1
    10     7     9    1
    11    11     9    2
    12     1     6    1
