@<TRIPOS>MOLECULE
/home/cewinharhar/GITHUB/reincatalyze/data/processed/docking_pred/2023-Apr-25-2248_maxeplen10_maxtrainstep1000_exh16_gamma099_lrac3e-4_lrcr1e-3/bb509c9d750c31c787a0dfaad7ceec12964b61ea_ligand_2.pdbqt
 12 12 0 0 0
SMALL
GASTEIGER

@<TRIPOS>ATOM
      1  C          4.9960    1.7980    0.6940 C.3     1  UNL1        0.1270
      2  C          4.4830    1.1400    1.9090 C.2     1  UNL1        0.3030
      3  O          5.1840    0.2530    2.4680 O.2     1  UNL1       -0.2520
      4  O          3.2390    1.4670    2.4680 O.3     1  UNL1       -0.4810
      5  H          2.6520    0.7190    2.8120 H       1  UNL1        0.2960
      6  C          6.5080    1.9330    0.7100 C.3     1  UNL1        0.0470
      7  C          7.1280    1.1040   -0.3550 C.2     1  UNL1       -0.0470
      8  C          8.4760    1.2320   -0.6580 C.2     1  UNL1        0.0040
      9  C          6.4130    0.1830   -1.0990 C.2     1  UNL1        0.0040
     10  C          9.0780    0.4860   -1.6450 C.2     1  UNL1        0.0000
     11  C          7.0170   -0.5640   -2.0870 C.2     1  UNL1        0.0000
     12  C          8.3550   -0.4300   -2.3820 C.2     1  UNL1        0.0000
@<TRIPOS>BOND
     1    12    11    2
     2    12    10    1
     3    11     9    1
     4    10     8    2
     5     9     7    2
     6     8     7    1
     7     7     6    1
     8     1     6    1
     9     1     2    1
    10     2     3    2
    11     2     4    1
    12     4     5    1
