@<TRIPOS>MOLECULE
/home/cewinharhar/GITHUB/reincatalyze/data/processed/docking_pred/2023-Apr-25-2248_maxeplen10_maxtrainstep1000_exh16_gamma099_lrac3e-4_lrcr1e-3/bb509c9d750c31c787a0dfaad7ceec12964b61ea_ligand_2.pdbqt
 12 12 0 0 0
SMALL
GASTEIGER

@<TRIPOS>ATOM
      1  C          8.3920   -0.5740   -2.2250 C.3     1  UNL1        0.1270
      2  C          8.4400   -1.8810   -2.9060 C.2     1  UNL1        0.3030
      3  O          9.5500   -2.4650   -3.0320 O.2     1  UNL1       -0.2520
      4  O          7.2910   -2.5000   -3.4180 O.3     1  UNL1       -0.4810
      5  H          7.4020   -3.3210   -3.9970 H       1  UNL1        0.2960
      6  C          6.9890    0.0050   -2.1940 C.3     1  UNL1        0.0470
      7  C          6.4820    0.0970   -0.8000 C.2     1  UNL1       -0.0470
      8  C          6.5880   -0.9820    0.0650 C.2     1  UNL1        0.0040
      9  C          5.8790    1.2360   -0.2970 C.2     1  UNL1        0.0040
     10  C          6.1190   -0.9320    1.3580 C.2     1  UNL1        0.0000
     11  C          5.4100    1.2850    0.9990 C.2     1  UNL1        0.0000
     12  C          5.5170    0.2090    1.8500 C.2     1  UNL1        0.0000
@<TRIPOS>BOND
     1     5     4    1
     2     4     2    1
     3     3     2    2
     4     2     1    1
     5     1     6    1
     6     6     7    1
     7     7     9    2
     8     7     8    1
     9     9    11    1
    10     8    10    2
    11    11    12    2
    12    10    12    1
