@<TRIPOS>MOLECULE
/home/cewinharhar/GITHUB/reincatalyze/data/processed/docking_pred/2023-Apr-25-2248_maxeplen10_maxtrainstep1000_exh16_gamma099_lrac3e-4_lrcr1e-3/bb509c9d750c31c787a0dfaad7ceec12964b61ea_ligand_2.pdbqt
 12 12 0 0 0
SMALL
GASTEIGER

@<TRIPOS>ATOM
      1  C          8.0790   -1.7120    1.2360 C.3     1  UNL1        0.1270
      2  C          8.4800   -2.8430    0.3810 C.2     1  UNL1        0.3030
      3  O          9.2170   -3.7440    0.8640 O.2     1  UNL1       -0.2520
      4  O          8.0670   -2.9540   -0.9550 O.3     1  UNL1       -0.4810
      5  H          7.0850   -2.8470   -1.1680 H       1  UNL1        0.2960
      6  C          6.5700   -1.5960    1.3640 C.3     1  UNL1        0.0470
      7  C          6.0890   -0.2950    0.8300 C.2     1  UNL1       -0.0470
      8  C          6.3420    0.0680   -0.4850 C.2     1  UNL1        0.0040
      9  C          5.3860    0.6160    1.5980 C.2     1  UNL1        0.0040
     10  C          5.9200    1.2690   -1.0070 C.2     1  UNL1        0.0000
     11  C          4.9640    1.8190    1.0740 C.2     1  UNL1        0.0000
     12  C          5.2200    2.1710   -0.2320 C.2     1  UNL1        0.0000
@<TRIPOS>BOND
     1     5     4    1
     2    10     8    1
     3    10    12    2
     4     4     2    1
     5     8     7    2
     6    12    11    1
     7     2     3    2
     8     2     1    1
     9     7     6    1
    10     7     9    1
    11    11     9    2
    12     1     6    1
