@<TRIPOS>MOLECULE
/home/cewinharhar/GITHUB/reincatalyze/data/processed/docking_pred/2023-Apr-25-2248_maxeplen10_maxtrainstep1000_exh16_gamma099_lrac3e-4_lrcr1e-3/bb509c9d750c31c787a0dfaad7ceec12964b61ea_ligand_2.pdbqt
 12 12 0 0 0
SMALL
GASTEIGER

@<TRIPOS>ATOM
      1  C          8.2870    0.1720   -2.1910 C.3     1  UNL1        0.1270
      2  C          9.4050    0.3710   -1.2510 C.2     1  UNL1        0.3030
      3  O          9.4780   -0.3560   -0.2230 O.2     1  UNL1       -0.2520
      4  O         10.3950    1.3410   -1.4610 O.3     1  UNL1       -0.4810
      5  H         11.3630    1.0830   -1.3220 H       1  UNL1        0.2960
      6  C          7.1680   -0.6540   -1.5840 C.3     1  UNL1        0.0470
      7  C          6.3830    0.1470   -0.6080 C.2     1  UNL1       -0.0470
      8  C          5.8330    1.3680   -0.9740 C.2     1  UNL1        0.0040
      9  C          6.1670   -0.2620    0.6950 C.2     1  UNL1        0.0040
     10  C          5.1110    2.1380   -0.0920 C.2     1  UNL1        0.0000
     11  C          5.4430    0.5100    1.5780 C.2     1  UNL1        0.0000
     12  C          4.9020    1.7210    1.2070 C.2     1  UNL1        0.0000
@<TRIPOS>BOND
     1     1     6    1
     2     1     2    1
     3     6     7    1
     4     4     5    1
     5     4     2    1
     6     2     3    2
     7     8     7    2
     8     8    10    1
     9     7     9    1
    10    10    12    2
    11     9    11    2
    12    12    11    1
