MODEL 1
REMARK VINA RESULT:      -7.3      0.000      0.000
REMARK SMILES O=C(O)CCc1ccccc1
REMARK SMILES IDX 4 1 2 2 1 3 3 4 5 6 6 7 7 8 11 9 8 10 10 11 9 12
REMARK H PARENT 3 5
REMARK Flexibility Score: inf
ROOT
ATOM      1  C   UNL     1       8.410  -0.671  -2.112  1.00  0.00     0.127 C 
ENDROOT
BRANCH   1   2
ATOM      2  C   UNL     1       8.430  -1.919  -2.895  1.00  0.00     0.303 C 
ATOM      3  O   UNL     1       9.527  -2.516  -3.069  1.00  0.00    -0.252 OA
BRANCH   2   4
ATOM      4  O   UNL     1       7.267  -2.470  -3.454  1.00  0.00    -0.481 OA
ATOM      5  H   UNL     1       6.393  -1.976  -3.335  1.00  0.00     0.296 HD
ENDBRANCH   2   4
ENDBRANCH   1   2
BRANCH   1   6
ATOM      6  C   UNL     1       7.043  -0.012  -2.116  1.00  0.00     0.047 C 
BRANCH   6   7
ATOM      7  C   UNL     1       6.482   0.060  -0.742  1.00  0.00    -0.047 A 
ATOM      8  C   UNL     1       5.826   1.202  -0.304  1.00  0.00     0.004 A 
ATOM      9  C   UNL     1       6.586  -0.979   0.165  1.00  0.00     0.004 A 
ATOM     10  C   UNL     1       5.305   1.304   0.965  1.00  0.00     0.000 A 
ATOM     11  C   UNL     1       6.063  -0.875   1.436  1.00  0.00     0.000 A 
ATOM     12  C   UNL     1       5.416   0.262   1.863  1.00  0.00     0.000 A 
ENDBRANCH   6   7
ENDBRANCH   1   6
TORSDOF 4
ENDMDL
MODEL 2
REMARK VINA RESULT:      -7.3      0.094      1.423
REMARK SMILES O=C(O)CCc1ccccc1
REMARK SMILES IDX 4 1 2 2 1 3 3 4 5 6 6 7 7 8 11 9 8 10 10 11 9 12
REMARK H PARENT 3 5
REMARK Flexibility Score: inf
ROOT
ATOM      1  C   UNL     1       8.392  -0.574  -2.225  1.00  0.00     0.127 C 
ENDROOT
BRANCH   1   2
ATOM      2  C   UNL     1       8.440  -1.881  -2.906  1.00  0.00     0.303 C 
ATOM      3  O   UNL     1       9.550  -2.465  -3.032  1.00  0.00    -0.252 OA
BRANCH   2   4
ATOM      4  O   UNL     1       7.291  -2.500  -3.418  1.00  0.00    -0.481 OA
ATOM      5  H   UNL     1       7.402  -3.321  -3.997  1.00  0.00     0.296 HD
ENDBRANCH   2   4
ENDBRANCH   1   2
BRANCH   1   6
ATOM      6  C   UNL     1       6.989   0.005  -2.194  1.00  0.00     0.047 C 
BRANCH   6   7
ATOM      7  C   UNL     1       6.482   0.097  -0.800  1.00  0.00    -0.047 A 
ATOM      8  C   UNL     1       6.588  -0.982   0.065  1.00  0.00     0.004 A 
ATOM      9  C   UNL     1       5.879   1.236  -0.297  1.00  0.00     0.004 A 
ATOM     10  C   UNL     1       6.119  -0.932   1.358  1.00  0.00     0.000 A 
ATOM     11  C   UNL     1       5.410   1.285   0.999  1.00  0.00     0.000 A 
ATOM     12  C   UNL     1       5.517   0.209   1.850  1.00  0.00     0.000 A 
ENDBRANCH   6   7
ENDBRANCH   1   6
TORSDOF 4
ENDMDL
MODEL 3
REMARK VINA RESULT:      -6.8      3.400      5.079
REMARK SMILES O=C(O)CCc1ccccc1
REMARK SMILES IDX 4 1 2 2 1 3 3 4 5 6 6 7 7 8 11 9 8 10 10 11 9 12
REMARK H PARENT 3 5
REMARK Flexibility Score: inf
ROOT
ATOM      1  C   UNL     1       4.996   1.798   0.694  1.00  0.00     0.127 C 
ENDROOT
BRANCH   1   2
ATOM      2  C   UNL     1       4.483   1.140   1.909  1.00  0.00     0.303 C 
ATOM      3  O   UNL     1       5.184   0.253   2.468  1.00  0.00    -0.252 OA
BRANCH   2   4
ATOM      4  O   UNL     1       3.239   1.467   2.468  1.00  0.00    -0.481 OA
ATOM      5  H   UNL     1       2.652   0.719   2.812  1.00  0.00     0.296 HD
ENDBRANCH   2   4
ENDBRANCH   1   2
BRANCH   1   6
ATOM      6  C   UNL     1       6.508   1.933   0.710  1.00  0.00     0.047 C 
BRANCH   6   7
ATOM      7  C   UNL     1       7.128   1.104  -0.355  1.00  0.00    -0.047 A 
ATOM      8  C   UNL     1       8.476   1.232  -0.658  1.00  0.00     0.004 A 
ATOM      9  C   UNL     1       6.413   0.183  -1.099  1.00  0.00     0.004 A 
ATOM     10  C   UNL     1       9.078   0.486  -1.645  1.00  0.00     0.000 A 
ATOM     11  C   UNL     1       7.017  -0.564  -2.087  1.00  0.00     0.000 A 
ATOM     12  C   UNL     1       8.355  -0.430  -2.382  1.00  0.00     0.000 A 
ENDBRANCH   6   7
ENDBRANCH   1   6
TORSDOF 4
ENDMDL
MODEL 4
REMARK VINA RESULT:      -6.6      1.950      2.333
REMARK SMILES O=C(O)CCc1ccccc1
REMARK SMILES IDX 4 1 2 2 1 3 3 4 5 6 6 7 7 8 11 9 8 10 10 11 9 12
REMARK H PARENT 3 5
REMARK Flexibility Score: inf
ROOT
ATOM      1  C   UNL     1       8.287   0.172  -2.191  1.00  0.00     0.127 C 
ENDROOT
BRANCH   1   2
ATOM      2  C   UNL     1       9.405   0.371  -1.251  1.00  0.00     0.303 C 
ATOM      3  O   UNL     1       9.478  -0.356  -0.223  1.00  0.00    -0.252 OA
BRANCH   2   4
ATOM      4  O   UNL     1      10.395   1.341  -1.461  1.00  0.00    -0.481 OA
ATOM      5  H   UNL     1      11.363   1.083  -1.322  1.00  0.00     0.296 HD
ENDBRANCH   2   4
ENDBRANCH   1   2
BRANCH   1   6
ATOM      6  C   UNL     1       7.168  -0.654  -1.584  1.00  0.00     0.047 C 
BRANCH   6   7
ATOM      7  C   UNL     1       6.383   0.147  -0.608  1.00  0.00    -0.047 A 
ATOM      8  C   UNL     1       5.833   1.368  -0.974  1.00  0.00     0.004 A 
ATOM      9  C   UNL     1       6.167  -0.262   0.695  1.00  0.00     0.004 A 
ATOM     10  C   UNL     1       5.111   2.138  -0.092  1.00  0.00     0.000 A 
ATOM     11  C   UNL     1       5.443   0.510   1.578  1.00  0.00     0.000 A 
ATOM     12  C   UNL     1       4.902   1.721   1.207  1.00  0.00     0.000 A 
ENDBRANCH   6   7
ENDBRANCH   1   6
TORSDOF 4
ENDMDL
MODEL 5
REMARK VINA RESULT:      -6.6      1.887      2.929
REMARK SMILES O=C(O)CCc1ccccc1
REMARK SMILES IDX 4 1 2 2 1 3 3 4 5 6 6 7 7 8 11 9 8 10 10 11 9 12
REMARK H PARENT 3 5
REMARK Flexibility Score: inf
ROOT
ATOM      1  C   UNL     1       8.079  -1.712   1.236  1.00  0.00     0.127 C 
ENDROOT
BRANCH   1   2
ATOM      2  C   UNL     1       8.480  -2.843   0.381  1.00  0.00     0.303 C 
ATOM      3  O   UNL     1       9.217  -3.744   0.864  1.00  0.00    -0.252 OA
BRANCH   2   4
ATOM      4  O   UNL     1       8.067  -2.954  -0.955  1.00  0.00    -0.481 OA
ATOM      5  H   UNL     1       7.085  -2.847  -1.168  1.00  0.00     0.296 HD
ENDBRANCH   2   4
ENDBRANCH   1   2
BRANCH   1   6
ATOM      6  C   UNL     1       6.570  -1.596   1.364  1.00  0.00     0.047 C 
BRANCH   6   7
ATOM      7  C   UNL     1       6.089  -0.295   0.830  1.00  0.00    -0.047 A 
ATOM      8  C   UNL     1       6.342   0.068  -0.485  1.00  0.00     0.004 A 
ATOM      9  C   UNL     1       5.386   0.616   1.598  1.00  0.00     0.004 A 
ATOM     10  C   UNL     1       5.920   1.269  -1.007  1.00  0.00     0.000 A 
ATOM     11  C   UNL     1       4.964   1.819   1.074  1.00  0.00     0.000 A 
ATOM     12  C   UNL     1       5.220   2.171  -0.232  1.00  0.00     0.000 A 
ENDBRANCH   6   7
ENDBRANCH   1   6
TORSDOF 4
ENDMDL
