@<TRIPOS>MOLECULE
/home/cewinharhar/GITHUB/reincatalyze/data/processed/docking_pred/2023-Apr-25-2248_maxeplen10_maxtrainstep1000_exh16_gamma099_lrac3e-4_lrcr1e-3/bb509c9d750c31c787a0dfaad7ceec12964b61ea_ligand_2.pdbqt
 12 12 0 0 0
SMALL
GASTEIGER

@<TRIPOS>ATOM
      1  C          8.4100   -0.6710   -2.1120 C.3     1  UNL1        0.1270
      2  C          8.4300   -1.9190   -2.8950 C.2     1  UNL1        0.3030
      3  O          9.5270   -2.5160   -3.0690 O.2     1  UNL1       -0.2520
      4  O          7.2670   -2.4700   -3.4540 O.3     1  UNL1       -0.4810
      5  H          6.3930   -1.9760   -3.3350 H       1  UNL1        0.2960
      6  C          7.0430   -0.0120   -2.1160 C.3     1  UNL1        0.0470
      7  C          6.4820    0.0600   -0.7420 C.2     1  UNL1       -0.0470
      8  C          5.8260    1.2020   -0.3040 C.2     1  UNL1        0.0040
      9  C          6.5860   -0.9790    0.1650 C.2     1  UNL1        0.0040
     10  C          5.3050    1.3040    0.9650 C.2     1  UNL1        0.0000
     11  C          6.0630   -0.8750    1.4360 C.2     1  UNL1        0.0000
     12  C          5.4160    0.2620    1.8630 C.2     1  UNL1        0.0000
@<TRIPOS>BOND
     1     4     5    1
     2     4     2    1
     3     3     2    2
     4     2     1    1
     5     6     1    1
     6     6     7    1
     7     7     8    2
     8     7     9    1
     9     8    10    1
    10     9    11    2
    11    10    12    2
    12    11    12    1
