@<TRIPOS>MOLECULE
/home/cewinharhar/GITHUB/reincatalyze/data/processed/docking_pred/2023-Apr-25-2248_maxeplen10_maxtrainstep1000_exh16_gamma099_lrac3e-4_lrcr1e-3/bb8285001221c2ec88d34c7e342a921234d5c761_ligand_2.pdbqt
 12 12 0 0 0
SMALL
GASTEIGER

@<TRIPOS>ATOM
      1  C          8.4120   -0.6380   -2.1270 C.3     1  UNL1        0.1270
      2  C          8.4470   -1.8950   -2.8950 C.2     1  UNL1        0.3030
      3  O          9.5560   -2.4650   -3.0860 O.2     1  UNL1       -0.2520
      4  O          7.2880   -2.4840   -3.4200 O.3     1  UNL1       -0.4810
      5  H          6.4040   -2.0120   -3.2870 H       1  UNL1        0.2960
      6  C          7.0320   -0.0040   -2.1280 C.3     1  UNL1        0.0470
      7  C          6.4800    0.0720   -0.7500 C.2     1  UNL1       -0.0470
      8  C          5.8170    1.2100   -0.3150 C.2     1  UNL1        0.0040
      9  C          6.6010   -0.9610    0.1620 C.2     1  UNL1        0.0040
     10  C          5.3030    1.3150    0.9570 C.2     1  UNL1        0.0000
     11  C          6.0860   -0.8540    1.4360 C.2     1  UNL1        0.0000
     12  C          5.4300    0.2790    1.8610 C.2     1  UNL1        0.0000
@<TRIPOS>BOND
     1     4     5    1
     2     4     2    1
     3     3     2    2
     4     2     1    1
     5     6     1    1
     6     6     7    1
     7     7     8    2
     8     7     9    1
     9     8    10    1
    10     9    11    2
    11    10    12    2
    12    11    12    1
