@<TRIPOS>MOLECULE
/home/cewinharhar/GITHUB/reincatalyze/data/processed/docking_pred/2023-Apr-25-2248_maxeplen10_maxtrainstep1000_exh16_gamma099_lrac3e-4_lrcr1e-3/bb8285001221c2ec88d34c7e342a921234d5c761_ligand_2.pdbqt
 12 12 0 0 0
SMALL
GASTEIGER

@<TRIPOS>ATOM
      1  C          5.4370    2.9450    0.1180 C.3     1  UNL1        0.1270
      2  C          6.2770    3.9020    0.8590 C.2     1  UNL1        0.3030
      3  O          6.9230    4.7750    0.2170 O.2     1  UNL1       -0.2520
      4  O          6.3840    3.8790    2.2570 O.3     1  UNL1       -0.4810
      5  H          6.0170    4.6600    2.7830 H       1  UNL1        0.2960
      6  C          4.8930    1.8460    1.0140 C.3     1  UNL1        0.0470
      7  C          5.7240    0.6180    0.9140 C.2     1  UNL1       -0.0470
      8  C          5.8400   -0.2480    1.9920 C.2     1  UNL1        0.0040
      9  C          6.4220    0.2770   -0.2310 C.2     1  UNL1        0.0040
     10  C          6.6090   -1.3880    1.9340 C.2     1  UNL1        0.0000
     11  C          7.1910   -0.8640   -0.2870 C.2     1  UNL1        0.0000
     12  C          7.3030   -1.7180    0.7870 C.2     1  UNL1        0.0000
@<TRIPOS>BOND
     1    11     9    1
     2    11    12    2
     3     9     7    2
     4     1     2    1
     5     1     6    1
     6     3     2    2
     7    12    10    1
     8     2     4    1
     9     7     6    1
    10     7     8    1
    11    10     8    2
    12     4     5    1
