@<TRIPOS>MOLECULE
/home/cewinharhar/GITHUB/reincatalyze/data/processed/docking_pred/2023-Apr-25-2248_maxeplen10_maxtrainstep1000_exh16_gamma099_lrac3e-4_lrcr1e-3/bb8285001221c2ec88d34c7e342a921234d5c761_ligand_2.pdbqt
 12 12 0 0 0
SMALL
GASTEIGER

@<TRIPOS>ATOM
      1  C          8.2400   -0.9180   -1.8610 C.3     1  UNL1        0.1270
      2  C          8.3130   -1.9940   -2.8650 C.2     1  UNL1        0.3030
      3  O          7.2450   -2.4320   -3.3720 O.2     1  UNL1       -0.2520
      4  O          9.5320   -2.5500   -3.2790 O.3     1  UNL1       -0.4810
      5  H          9.7410   -3.5040   -3.0200 H       1  UNL1        0.2960
      6  C          7.5640   -1.3730   -0.5800 C.3     1  UNL1        0.0470
      7  C          6.6550   -0.3220   -0.0550 C.2     1  UNL1       -0.0470
      8  C          6.3050    0.7680   -0.8390 C.2     1  UNL1        0.0040
      9  C          6.1230   -0.3610    1.2210 C.2     1  UNL1        0.0040
     10  C          5.4740    1.7630   -0.3790 C.2     1  UNL1        0.0000
     11  C          5.2900    0.6370    1.6810 C.2     1  UNL1        0.0000
     12  C          4.9500    1.7150    0.8970 C.2     1  UNL1        0.0000
@<TRIPOS>BOND
     1     3     2    2
     2     4     5    1
     3     4     2    1
     4     2     1    1
     5     1     6    1
     6     8    10    1
     7     8     7    2
     8     6     7    1
     9    10    12    2
    10     7     9    1
    11    12    11    1
    12     9    11    2
