@<TRIPOS>MOLECULE
/home/cewinharhar/GITHUB/reincatalyze/data/processed/docking_pred/2023-Apr-25-2248_maxeplen10_maxtrainstep1000_exh16_gamma099_lrac3e-4_lrcr1e-3/bb8285001221c2ec88d34c7e342a921234d5c761_ligand_2.pdbqt
 12 12 0 0 0
SMALL
GASTEIGER

@<TRIPOS>ATOM
      1  C          5.0000    1.7950    0.7430 C.3     1  UNL1        0.1270
      2  C          4.4630    1.1140    1.9350 C.2     1  UNL1        0.3030
      3  O          5.1440    0.2010    2.4770 O.2     1  UNL1       -0.2520
      4  O          3.2200    1.4480    2.4910 O.3     1  UNL1       -0.4810
      5  H          3.1220    1.4380    3.4970 H       1  UNL1        0.2960
      6  C          6.5140    1.8930    0.7710 C.3     1  UNL1        0.0470
      7  C          7.1210    1.0890   -0.3220 C.2     1  UNL1       -0.0470
      8  C          8.4640    1.2250   -0.6390 C.2     1  UNL1        0.0040
      9  C          6.3960    0.1840   -1.0760 C.2     1  UNL1        0.0040
     10  C          9.0530    0.5030   -1.6520 C.2     1  UNL1        0.0000
     11  C          6.9860   -0.5390   -2.0900 C.2     1  UNL1        0.0000
     12  C          8.3200   -0.3960   -2.4000 C.2     1  UNL1        0.0000
@<TRIPOS>BOND
     1    12    11    2
     2    12    10    1
     3    11     9    1
     4    10     8    2
     5     9     7    2
     6     8     7    1
     7     7     6    1
     8     1     6    1
     9     1     2    1
    10     2     3    2
    11     2     4    1
    12     4     5    1
