MODEL 1
REMARK VINA RESULT:      -7.4      0.000      0.000
REMARK SMILES O=C(O)CCc1ccccc1
REMARK SMILES IDX 4 1 2 2 1 3 3 4 5 6 6 7 7 8 11 9 8 10 10 11 9 12
REMARK H PARENT 3 5
REMARK Flexibility Score: inf
ROOT
ATOM      1  C   UNL     1       8.401  -0.732  -2.038  1.00  0.00     0.127 C 
ENDROOT
BRANCH   1   2
ATOM      2  C   UNL     1       8.432  -1.950  -2.868  1.00  0.00     0.303 C 
ATOM      3  O   UNL     1       9.538  -2.519  -3.078  1.00  0.00    -0.252 OA
BRANCH   2   4
ATOM      4  O   UNL     1       7.273  -2.500  -3.433  1.00  0.00    -0.481 OA
ATOM      5  H   UNL     1       7.297  -2.789  -4.401  1.00  0.00     0.296 HD
ENDBRANCH   2   4
ENDBRANCH   1   2
BRANCH   1   6
ATOM      6  C   UNL     1       7.054  -0.033  -2.096  1.00  0.00     0.047 C 
BRANCH   6   7
ATOM      7  C   UNL     1       6.473   0.118  -0.737  1.00  0.00    -0.047 A 
ATOM      8  C   UNL     1       6.582  -0.904   0.196  1.00  0.00     0.004 A 
ATOM      9  C   UNL     1       5.797   1.254  -0.333  1.00  0.00     0.004 A 
ATOM     10  C   UNL     1       6.046  -0.800   1.459  1.00  0.00     0.000 A 
ATOM     11  C   UNL     1       5.261   1.357   0.933  1.00  0.00     0.000 A 
ATOM     12  C   UNL     1       5.372   0.339   1.852  1.00  0.00     0.000 A 
ENDBRANCH   6   7
ENDBRANCH   1   6
TORSDOF 4
ENDMDL
MODEL 2
REMARK VINA RESULT:      -7.3      0.069      1.422
REMARK SMILES O=C(O)CCc1ccccc1
REMARK SMILES IDX 4 1 2 2 1 3 3 4 5 6 6 7 7 8 11 9 8 10 10 11 9 12
REMARK H PARENT 3 5
REMARK Flexibility Score: inf
ROOT
ATOM      1  C   UNL     1       8.412  -0.638  -2.127  1.00  0.00     0.127 C 
ENDROOT
BRANCH   1   2
ATOM      2  C   UNL     1       8.447  -1.895  -2.895  1.00  0.00     0.303 C 
ATOM      3  O   UNL     1       9.556  -2.465  -3.086  1.00  0.00    -0.252 OA
BRANCH   2   4
ATOM      4  O   UNL     1       7.288  -2.484  -3.420  1.00  0.00    -0.481 OA
ATOM      5  H   UNL     1       6.404  -2.012  -3.287  1.00  0.00     0.296 HD
ENDBRANCH   2   4
ENDBRANCH   1   2
BRANCH   1   6
ATOM      6  C   UNL     1       7.032  -0.004  -2.128  1.00  0.00     0.047 C 
BRANCH   6   7
ATOM      7  C   UNL     1       6.480   0.072  -0.750  1.00  0.00    -0.047 A 
ATOM      8  C   UNL     1       5.817   1.210  -0.315  1.00  0.00     0.004 A 
ATOM      9  C   UNL     1       6.601  -0.961   0.162  1.00  0.00     0.004 A 
ATOM     10  C   UNL     1       5.303   1.315   0.957  1.00  0.00     0.000 A 
ATOM     11  C   UNL     1       6.086  -0.854   1.436  1.00  0.00     0.000 A 
ATOM     12  C   UNL     1       5.430   0.279   1.861  1.00  0.00     0.000 A 
ENDBRANCH   6   7
ENDBRANCH   1   6
TORSDOF 4
ENDMDL
MODEL 3
REMARK VINA RESULT:      -7.1      0.621      1.884
REMARK SMILES O=C(O)CCc1ccccc1
REMARK SMILES IDX 4 1 2 2 1 3 3 4 5 6 6 7 7 8 11 9 8 10 10 11 9 12
REMARK H PARENT 3 5
REMARK Flexibility Score: inf
ROOT
ATOM      1  C   UNL     1       8.240  -0.918  -1.861  1.00  0.00     0.127 C 
ENDROOT
BRANCH   1   2
ATOM      2  C   UNL     1       8.313  -1.994  -2.865  1.00  0.00     0.303 C 
ATOM      3  O   UNL     1       7.245  -2.432  -3.372  1.00  0.00    -0.252 OA
BRANCH   2   4
ATOM      4  O   UNL     1       9.532  -2.550  -3.279  1.00  0.00    -0.481 OA
ATOM      5  H   UNL     1       9.741  -3.504  -3.020  1.00  0.00     0.296 HD
ENDBRANCH   2   4
ENDBRANCH   1   2
BRANCH   1   6
ATOM      6  C   UNL     1       7.564  -1.373  -0.580  1.00  0.00     0.047 C 
BRANCH   6   7
ATOM      7  C   UNL     1       6.655  -0.322  -0.055  1.00  0.00    -0.047 A 
ATOM      8  C   UNL     1       6.305   0.768  -0.839  1.00  0.00     0.004 A 
ATOM      9  C   UNL     1       6.123  -0.361   1.221  1.00  0.00     0.004 A 
ATOM     10  C   UNL     1       5.474   1.763  -0.379  1.00  0.00     0.000 A 
ATOM     11  C   UNL     1       5.290   0.637   1.681  1.00  0.00     0.000 A 
ATOM     12  C   UNL     1       4.950   1.715   0.897  1.00  0.00     0.000 A 
ENDBRANCH   6   7
ENDBRANCH   1   6
TORSDOF 4
ENDMDL
MODEL 4
REMARK VINA RESULT:      -6.8      3.397      5.104
REMARK SMILES O=C(O)CCc1ccccc1
REMARK SMILES IDX 4 1 2 2 1 3 3 4 5 6 6 7 7 8 11 9 8 10 10 11 9 12
REMARK H PARENT 3 5
REMARK Flexibility Score: inf
ROOT
ATOM      1  C   UNL     1       5.000   1.795   0.743  1.00  0.00     0.127 C 
ENDROOT
BRANCH   1   2
ATOM      2  C   UNL     1       4.463   1.114   1.935  1.00  0.00     0.303 C 
ATOM      3  O   UNL     1       5.144   0.201   2.477  1.00  0.00    -0.252 OA
BRANCH   2   4
ATOM      4  O   UNL     1       3.220   1.448   2.491  1.00  0.00    -0.481 OA
ATOM      5  H   UNL     1       3.122   1.438   3.497  1.00  0.00     0.296 HD
ENDBRANCH   2   4
ENDBRANCH   1   2
BRANCH   1   6
ATOM      6  C   UNL     1       6.514   1.893   0.771  1.00  0.00     0.047 C 
BRANCH   6   7
ATOM      7  C   UNL     1       7.121   1.089  -0.322  1.00  0.00    -0.047 A 
ATOM      8  C   UNL     1       8.464   1.225  -0.639  1.00  0.00     0.004 A 
ATOM      9  C   UNL     1       6.396   0.184  -1.076  1.00  0.00     0.004 A 
ATOM     10  C   UNL     1       9.053   0.503  -1.652  1.00  0.00     0.000 A 
ATOM     11  C   UNL     1       6.986  -0.539  -2.090  1.00  0.00     0.000 A 
ATOM     12  C   UNL     1       8.320  -0.396  -2.400  1.00  0.00     0.000 A 
ENDBRANCH   6   7
ENDBRANCH   1   6
TORSDOF 4
ENDMDL
MODEL 5
REMARK VINA RESULT:      -6.6      3.802      4.969
REMARK SMILES O=C(O)CCc1ccccc1
REMARK SMILES IDX 4 1 2 2 1 3 3 4 5 6 6 7 7 8 11 9 8 10 10 11 9 12
REMARK H PARENT 3 5
REMARK Flexibility Score: inf
ROOT
ATOM      1  C   UNL     1       5.437   2.945   0.118  1.00  0.00     0.127 C 
ENDROOT
BRANCH   1   2
ATOM      2  C   UNL     1       6.277   3.902   0.859  1.00  0.00     0.303 C 
ATOM      3  O   UNL     1       6.923   4.775   0.217  1.00  0.00    -0.252 OA
BRANCH   2   4
ATOM      4  O   UNL     1       6.384   3.879   2.257  1.00  0.00    -0.481 OA
ATOM      5  H   UNL     1       6.017   4.660   2.783  1.00  0.00     0.296 HD
ENDBRANCH   2   4
ENDBRANCH   1   2
BRANCH   1   6
ATOM      6  C   UNL     1       4.893   1.846   1.014  1.00  0.00     0.047 C 
BRANCH   6   7
ATOM      7  C   UNL     1       5.724   0.618   0.914  1.00  0.00    -0.047 A 
ATOM      8  C   UNL     1       5.840  -0.248   1.992  1.00  0.00     0.004 A 
ATOM      9  C   UNL     1       6.422   0.277  -0.231  1.00  0.00     0.004 A 
ATOM     10  C   UNL     1       6.609  -1.388   1.934  1.00  0.00     0.000 A 
ATOM     11  C   UNL     1       7.191  -0.864  -0.287  1.00  0.00     0.000 A 
ATOM     12  C   UNL     1       7.303  -1.718   0.787  1.00  0.00     0.000 A 
ENDBRANCH   6   7
ENDBRANCH   1   6
TORSDOF 4
ENDMDL
