@<TRIPOS>MOLECULE
/home/cewinharhar/GITHUB/reincatalyze/data/processed/docking_pred/2023-Apr-25-2248_maxeplen10_maxtrainstep1000_exh16_gamma099_lrac3e-4_lrcr1e-3/bde4f716ac8ce10fa2b7126593b1b8cc9fcb83f2_ligand_2.pdbqt
 12 12 0 0 0
SMALL
GASTEIGER

@<TRIPOS>ATOM
      1  C          5.3850    2.9800    0.1150 C.3     1  UNL1        0.1270
      2  C          6.2330    3.9180    0.8720 C.2     1  UNL1        0.3030
      3  O          6.9110    4.7740    0.2420 O.2     1  UNL1       -0.2520
      4  O          6.3110    3.8940    2.2720 O.3     1  UNL1       -0.4810
      5  H          7.2240    3.8470    2.7040 H       1  UNL1        0.2960
      6  C          5.2110    1.6550    0.8360 C.3     1  UNL1        0.0470
      7  C          6.0190    0.5870    0.1890 C.2     1  UNL1       -0.0470
      8  C          6.3400    0.6610   -1.1590 C.2     1  UNL1        0.0040
      9  C          6.4780   -0.5220    0.8750 C.2     1  UNL1        0.0040
     10  C          7.0770   -0.3150   -1.7880 C.2     1  UNL1        0.0000
     11  C          7.2160   -1.5000    0.2420 C.2     1  UNL1        0.0000
     12  C          7.5300   -1.4200   -1.0950 C.2     1  UNL1        0.0000
@<TRIPOS>BOND
     1    10     8    1
     2    10    12    2
     3     8     7    2
     4    12    11    1
     5     1     6    1
     6     1     2    1
     7     7     6    1
     8     7     9    1
     9     3     2    2
    10    11     9    2
    11     2     4    1
    12     4     5    1
