MODEL 1
REMARK VINA RESULT:      -7.2      0.000      0.000
REMARK SMILES O=C(O)CCc1ccccc1
REMARK SMILES IDX 4 1 2 2 1 3 3 4 5 6 6 7 7 8 11 9 8 10 10 11 9 12
REMARK H PARENT 3 5
REMARK Flexibility Score: inf
ROOT
ATOM      1  C   UNL     1       8.421  -0.654  -2.124  1.00  0.00     0.127 C 
ENDROOT
BRANCH   1   2
ATOM      2  C   UNL     1       8.409  -1.914  -2.888  1.00  0.00     0.303 C 
ATOM      3  O   UNL     1       7.302  -2.415  -3.225  1.00  0.00    -0.252 OA
BRANCH   2   4
ATOM      4  O   UNL     1       9.589  -2.575  -3.258  1.00  0.00    -0.481 OA
ATOM      5  H   UNL     1      10.197  -2.137  -3.937  1.00  0.00     0.296 HD
ENDBRANCH   2   4
ENDBRANCH   1   2
BRANCH   1   6
ATOM      6  C   UNL     1       7.065   0.030  -2.124  1.00  0.00     0.047 C 
BRANCH   6   7
ATOM      7  C   UNL     1       6.500   0.090  -0.750  1.00  0.00    -0.047 A 
ATOM      8  C   UNL     1       5.825   1.221  -0.312  1.00  0.00     0.004 A 
ATOM      9  C   UNL     1       6.618  -0.949   0.154  1.00  0.00     0.004 A 
ATOM     10  C   UNL     1       5.300   1.312   0.956  1.00  0.00     0.000 A 
ATOM     11  C   UNL     1       6.091  -0.856   1.425  1.00  0.00     0.000 A 
ATOM     12  C   UNL     1       5.425   0.270   1.853  1.00  0.00     0.000 A 
ENDBRANCH   6   7
ENDBRANCH   1   6
TORSDOF 4
ENDMDL
MODEL 2
REMARK VINA RESULT:      -7.2      0.037      1.421
REMARK SMILES O=C(O)CCc1ccccc1
REMARK SMILES IDX 4 1 2 2 1 3 3 4 5 6 6 7 7 8 11 9 8 10 10 11 9 12
REMARK H PARENT 3 5
REMARK Flexibility Score: inf
ROOT
ATOM      1  C   UNL     1       8.379  -0.637  -2.145  1.00  0.00     0.127 C 
ENDROOT
BRANCH   1   2
ATOM      2  C   UNL     1       8.393  -1.905  -2.896  1.00  0.00     0.303 C 
ATOM      3  O   UNL     1       7.297  -2.419  -3.248  1.00  0.00    -0.252 OA
BRANCH   2   4
ATOM      4  O   UNL     1       9.585  -2.560  -3.236  1.00  0.00    -0.481 OA
ATOM      5  H   UNL     1      10.301  -2.039  -3.725  1.00  0.00     0.296 HD
ENDBRANCH   2   4
ENDBRANCH   1   2
BRANCH   1   6
ATOM      6  C   UNL     1       7.010   0.018  -2.149  1.00  0.00     0.047 C 
BRANCH   6   7
ATOM      7  C   UNL     1       6.468   0.127  -0.769  1.00  0.00    -0.047 A 
ATOM      8  C   UNL     1       6.610  -0.918   0.132  1.00  0.00     0.004 A 
ATOM      9  C   UNL     1       5.796   1.248  -0.316  1.00  0.00     0.004 A 
ATOM     10  C   UNL     1       6.110  -0.851   1.413  1.00  0.00     0.000 A 
ATOM     11  C   UNL     1       5.296   1.313   0.967  1.00  0.00     0.000 A 
ATOM     12  C   UNL     1       5.440   0.271   1.855  1.00  0.00     0.000 A 
ENDBRANCH   6   7
ENDBRANCH   1   6
TORSDOF 4
ENDMDL
MODEL 3
REMARK VINA RESULT:      -6.8      3.320      5.159
REMARK SMILES O=C(O)CCc1ccccc1
REMARK SMILES IDX 4 1 2 2 1 3 3 4 5 6 6 7 7 8 11 9 8 10 10 11 9 12
REMARK H PARENT 3 5
REMARK Flexibility Score: inf
ROOT
ATOM      1  C   UNL     1       4.975   1.805   0.725  1.00  0.00     0.127 C 
ENDROOT
BRANCH   1   2
ATOM      2  C   UNL     1       4.464   1.118   1.924  1.00  0.00     0.303 C 
ATOM      3  O   UNL     1       5.162   0.212   2.456  1.00  0.00    -0.252 OA
BRANCH   2   4
ATOM      4  O   UNL     1       3.225   1.438   2.499  1.00  0.00    -0.481 OA
ATOM      5  H   UNL     1       2.383   1.127   2.034  1.00  0.00     0.296 HD
ENDBRANCH   2   4
ENDBRANCH   1   2
BRANCH   1   6
ATOM      6  C   UNL     1       6.487   1.940   0.742  1.00  0.00     0.047 C 
BRANCH   6   7
ATOM      7  C   UNL     1       7.108   1.121  -0.332  1.00  0.00    -0.047 A 
ATOM      8  C   UNL     1       8.462   1.233  -0.614  1.00  0.00     0.004 A 
ATOM      9  C   UNL     1       6.387   0.228  -1.103  1.00  0.00     0.004 A 
ATOM     10  C   UNL     1       9.063   0.497  -1.609  1.00  0.00     0.000 A 
ATOM     11  C   UNL     1       6.991  -0.509  -2.099  1.00  0.00     0.000 A 
ATOM     12  C   UNL     1       8.335  -0.392  -2.374  1.00  0.00     0.000 A 
ENDBRANCH   6   7
ENDBRANCH   1   6
TORSDOF 4
ENDMDL
MODEL 4
REMARK VINA RESULT:      -6.6      1.947      2.276
REMARK SMILES O=C(O)CCc1ccccc1
REMARK SMILES IDX 4 1 2 2 1 3 3 4 5 6 6 7 7 8 11 9 8 10 10 11 9 12
REMARK H PARENT 3 5
REMARK Flexibility Score: inf
ROOT
ATOM      1  C   UNL     1       8.266   0.224  -2.171  1.00  0.00     0.127 C 
ENDROOT
BRANCH   1   2
ATOM      2  C   UNL     1       9.393   0.368  -1.233  1.00  0.00     0.303 C 
ATOM      3  O   UNL     1       9.454  -0.392  -0.228  1.00  0.00    -0.252 OA
BRANCH   2   4
ATOM      4  O   UNL     1      10.404   1.322  -1.419  1.00  0.00    -0.481 OA
ATOM      5  H   UNL     1      10.623   1.617  -2.361  1.00  0.00     0.296 HD
ENDBRANCH   2   4
ENDBRANCH   1   2
BRANCH   1   6
ATOM      6  C   UNL     1       7.124  -0.582  -1.577  1.00  0.00     0.047 C 
BRANCH   6   7
ATOM      7  C   UNL     1       6.342   0.234  -0.612  1.00  0.00    -0.047 A 
ATOM      8  C   UNL     1       5.823   1.466  -0.984  1.00  0.00     0.004 A 
ATOM      9  C   UNL     1       6.100  -0.173   0.687  1.00  0.00     0.004 A 
ATOM     10  C   UNL     1       5.104   2.249  -0.111  1.00  0.00     0.000 A 
ATOM     11  C   UNL     1       5.379   0.613   1.561  1.00  0.00     0.000 A 
ATOM     12  C   UNL     1       4.868   1.834   1.185  1.00  0.00     0.000 A 
ENDBRANCH   6   7
ENDBRANCH   1   6
TORSDOF 4
ENDMDL
MODEL 5
REMARK VINA RESULT:      -6.5      3.708      5.027
REMARK SMILES O=C(O)CCc1ccccc1
REMARK SMILES IDX 4 1 2 2 1 3 3 4 5 6 6 7 7 8 11 9 8 10 10 11 9 12
REMARK H PARENT 3 5
REMARK Flexibility Score: inf
ROOT
ATOM      1  C   UNL     1       5.385   2.980   0.115  1.00  0.00     0.127 C 
ENDROOT
BRANCH   1   2
ATOM      2  C   UNL     1       6.233   3.918   0.872  1.00  0.00     0.303 C 
ATOM      3  O   UNL     1       6.911   4.774   0.242  1.00  0.00    -0.252 OA
BRANCH   2   4
ATOM      4  O   UNL     1       6.311   3.894   2.272  1.00  0.00    -0.481 OA
ATOM      5  H   UNL     1       7.224   3.847   2.704  1.00  0.00     0.296 HD
ENDBRANCH   2   4
ENDBRANCH   1   2
BRANCH   1   6
ATOM      6  C   UNL     1       5.211   1.655   0.836  1.00  0.00     0.047 C 
BRANCH   6   7
ATOM      7  C   UNL     1       6.019   0.587   0.189  1.00  0.00    -0.047 A 
ATOM      8  C   UNL     1       6.340   0.661  -1.159  1.00  0.00     0.004 A 
ATOM      9  C   UNL     1       6.478  -0.522   0.875  1.00  0.00     0.004 A 
ATOM     10  C   UNL     1       7.077  -0.315  -1.788  1.00  0.00     0.000 A 
ATOM     11  C   UNL     1       7.216  -1.500   0.242  1.00  0.00     0.000 A 
ATOM     12  C   UNL     1       7.530  -1.420  -1.095  1.00  0.00     0.000 A 
ENDBRANCH   6   7
ENDBRANCH   1   6
TORSDOF 4
ENDMDL
