@<TRIPOS>MOLECULE
/home/cewinharhar/GITHUB/reincatalyze/data/processed/docking_pred/2023-Apr-25-2248_maxeplen10_maxtrainstep1000_exh16_gamma099_lrac3e-4_lrcr1e-3/bde4f716ac8ce10fa2b7126593b1b8cc9fcb83f2_ligand_2.pdbqt
 12 12 0 0 0
SMALL
GASTEIGER

@<TRIPOS>ATOM
      1  C          8.3790   -0.6370   -2.1450 C.3     1  UNL1        0.1270
      2  C          8.3930   -1.9050   -2.8960 C.2     1  UNL1        0.3030
      3  O          7.2970   -2.4190   -3.2480 O.2     1  UNL1       -0.2520
      4  O          9.5850   -2.5600   -3.2360 O.3     1  UNL1       -0.4810
      5  H         10.3010   -2.0390   -3.7250 H       1  UNL1        0.2960
      6  C          7.0100    0.0180   -2.1490 C.3     1  UNL1        0.0470
      7  C          6.4680    0.1270   -0.7690 C.2     1  UNL1       -0.0470
      8  C          6.6100   -0.9180    0.1320 C.2     1  UNL1        0.0040
      9  C          5.7960    1.2480   -0.3160 C.2     1  UNL1        0.0040
     10  C          6.1100   -0.8510    1.4130 C.2     1  UNL1        0.0000
     11  C          5.2960    1.3130    0.9670 C.2     1  UNL1        0.0000
     12  C          5.4400    0.2710    1.8550 C.2     1  UNL1        0.0000
@<TRIPOS>BOND
     1     5     4    1
     2     3     2    2
     3     4     2    1
     4     2     1    1
     5     6     1    1
     6     6     7    1
     7     7     9    2
     8     7     8    1
     9     9    11    1
    10     8    10    2
    11    11    12    2
    12    10    12    1
