@<TRIPOS>MOLECULE
/home/cewinharhar/GITHUB/reincatalyze/data/processed/docking_pred/2023-Apr-25-2248_maxeplen10_maxtrainstep1000_exh16_gamma099_lrac3e-4_lrcr1e-3/bde4f716ac8ce10fa2b7126593b1b8cc9fcb83f2_ligand_2.pdbqt
 12 12 0 0 0
SMALL
GASTEIGER

@<TRIPOS>ATOM
      1  C          4.9750    1.8050    0.7250 C.3     1  UNL1        0.1270
      2  C          4.4640    1.1180    1.9240 C.2     1  UNL1        0.3030
      3  O          5.1620    0.2120    2.4560 O.2     1  UNL1       -0.2520
      4  O          3.2250    1.4380    2.4990 O.3     1  UNL1       -0.4810
      5  H          2.3830    1.1270    2.0340 H       1  UNL1        0.2960
      6  C          6.4870    1.9400    0.7420 C.3     1  UNL1        0.0470
      7  C          7.1080    1.1210   -0.3320 C.2     1  UNL1       -0.0470
      8  C          8.4620    1.2330   -0.6140 C.2     1  UNL1        0.0040
      9  C          6.3870    0.2280   -1.1030 C.2     1  UNL1        0.0040
     10  C          9.0630    0.4970   -1.6090 C.2     1  UNL1        0.0000
     11  C          6.9910   -0.5090   -2.0990 C.2     1  UNL1        0.0000
     12  C          8.3350   -0.3920   -2.3740 C.2     1  UNL1        0.0000
@<TRIPOS>BOND
     1    12    11    2
     2    12    10    1
     3    11     9    1
     4    10     8    2
     5     9     7    2
     6     8     7    1
     7     7     6    1
     8     1     6    1
     9     1     2    1
    10     2     3    2
    11     2     4    1
    12     5     4    1
