@<TRIPOS>MOLECULE
/home/cewinharhar/GITHUB/reincatalyze/data/processed/docking_pred/2023-Apr-25-2248_maxeplen10_maxtrainstep1000_exh16_gamma099_lrac3e-4_lrcr1e-3/bde4f716ac8ce10fa2b7126593b1b8cc9fcb83f2_ligand_2.pdbqt
 12 12 0 0 0
SMALL
GASTEIGER

@<TRIPOS>ATOM
      1  C          8.4210   -0.6540   -2.1240 C.3     1  UNL1        0.1270
      2  C          8.4090   -1.9140   -2.8880 C.2     1  UNL1        0.3030
      3  O          7.3020   -2.4150   -3.2250 O.2     1  UNL1       -0.2520
      4  O          9.5890   -2.5750   -3.2580 O.3     1  UNL1       -0.4810
      5  H         10.1970   -2.1370   -3.9370 H       1  UNL1        0.2960
      6  C          7.0650    0.0300   -2.1240 C.3     1  UNL1        0.0470
      7  C          6.5000    0.0900   -0.7500 C.2     1  UNL1       -0.0470
      8  C          5.8250    1.2210   -0.3120 C.2     1  UNL1        0.0040
      9  C          6.6180   -0.9490    0.1540 C.2     1  UNL1        0.0040
     10  C          5.3000    1.3120    0.9560 C.2     1  UNL1        0.0000
     11  C          6.0910   -0.8560    1.4250 C.2     1  UNL1        0.0000
     12  C          5.4250    0.2700    1.8530 C.2     1  UNL1        0.0000
@<TRIPOS>BOND
     1     5     4    1
     2     4     2    1
     3     3     2    2
     4     2     1    1
     5     1     6    1
     6     6     7    1
     7     7     8    2
     8     7     9    1
     9     8    10    1
    10     9    11    2
    11    10    12    2
    12    11    12    1
