@<TRIPOS>MOLECULE
/home/cewinharhar/GITHUB/reincatalyze/data/processed/docking_pred/2023-Apr-25-2248_maxeplen10_maxtrainstep1000_exh16_gamma099_lrac3e-4_lrcr1e-3/bde4f716ac8ce10fa2b7126593b1b8cc9fcb83f2_ligand_2.pdbqt
 12 12 0 0 0
SMALL
GASTEIGER

@<TRIPOS>ATOM
      1  C          8.2660    0.2240   -2.1710 C.3     1  UNL1        0.1270
      2  C          9.3930    0.3680   -1.2330 C.2     1  UNL1        0.3030
      3  O          9.4540   -0.3920   -0.2280 O.2     1  UNL1       -0.2520
      4  O         10.4040    1.3220   -1.4190 O.3     1  UNL1       -0.4810
      5  H         10.6230    1.6170   -2.3610 H       1  UNL1        0.2960
      6  C          7.1240   -0.5820   -1.5770 C.3     1  UNL1        0.0470
      7  C          6.3420    0.2340   -0.6120 C.2     1  UNL1       -0.0470
      8  C          5.8230    1.4660   -0.9840 C.2     1  UNL1        0.0040
      9  C          6.1000   -0.1730    0.6870 C.2     1  UNL1        0.0040
     10  C          5.1040    2.2490   -0.1110 C.2     1  UNL1        0.0000
     11  C          5.3790    0.6130    1.5610 C.2     1  UNL1        0.0000
     12  C          4.8680    1.8340    1.1850 C.2     1  UNL1        0.0000
@<TRIPOS>BOND
     1     5     4    1
     2     1     6    1
     3     1     2    1
     4     6     7    1
     5     4     2    1
     6     2     3    2
     7     8     7    2
     8     8    10    1
     9     7     9    1
    10    10    12    2
    11     9    11    2
    12    12    11    1
