@<TRIPOS>MOLECULE
/home/cewinharhar/GITHUB/reincatalyze/data/processed/docking_pred/2023-Apr-25-2248_maxeplen10_maxtrainstep1000_exh16_gamma099_lrac3e-4_lrcr1e-3/bdfc35a41e3d78d3bf59a6b88613069133e00868_ligand_2.pdbqt
 12 12 0 0 0
SMALL
GASTEIGER

@<TRIPOS>ATOM
      1  C          8.1270   -1.6030    1.1810 C.3     1  UNL1        0.1270
      2  C          8.4620   -2.7740    0.3500 C.2     1  UNL1        0.3030
      3  O          9.1470   -3.7060    0.8520 O.2     1  UNL1       -0.2520
      4  O          8.0420   -2.8880   -0.9830 O.3     1  UNL1       -0.4810
      5  H          8.6700   -3.3130   -1.6520 H       1  UNL1        0.2960
      6  C          6.6340   -1.4810    1.4260 C.3     1  UNL1        0.0470
      7  C          6.1050   -0.2090    0.8690 C.2     1  UNL1       -0.0470
      8  C          6.3770    0.1570   -0.4420 C.2     1  UNL1        0.0040
      9  C          5.3380    0.6710    1.6100 C.2     1  UNL1        0.0040
     10  C          5.9110    1.3330   -0.9840 C.2     1  UNL1        0.0000
     11  C          4.8720    1.8490    1.0660 C.2     1  UNL1        0.0000
     12  C          5.1470    2.2050   -0.2350 C.2     1  UNL1        0.0000
@<TRIPOS>BOND
     1     5     4    1
     2    10     8    1
     3    10    12    2
     4     4     2    1
     5     8     7    2
     6    12    11    1
     7     2     3    2
     8     2     1    1
     9     7     6    1
    10     7     9    1
    11    11     9    2
    12     1     6    1
