@<TRIPOS>MOLECULE
/home/cewinharhar/GITHUB/reincatalyze/data/processed/docking_pred/2023-Apr-25-2248_maxeplen10_maxtrainstep1000_exh16_gamma099_lrac3e-4_lrcr1e-3/bdfc35a41e3d78d3bf59a6b88613069133e00868_ligand_2.pdbqt
 12 12 0 0 0
SMALL
GASTEIGER

@<TRIPOS>ATOM
      1  C          4.9990    1.8020    0.7250 C.3     1  UNL1        0.1270
      2  C          4.4720    1.1220    1.9220 C.2     1  UNL1        0.3030
      3  O          5.1600    0.2130    2.4620 O.2     1  UNL1       -0.2520
      4  O          3.2300    1.4500    2.4830 O.3     1  UNL1       -0.4810
      5  H          3.2070    1.8240    3.4220 H       1  UNL1        0.2960
      6  C          6.5110    1.9340    0.7600 C.3     1  UNL1        0.0470
      7  C          7.1400    1.1390   -0.3270 C.2     1  UNL1       -0.0470
      8  C          6.3870    0.2520   -1.0820 C.2     1  UNL1        0.0040
      9  C          8.4850    1.2280   -0.6380 C.2     1  UNL1        0.0040
     10  C          6.9410   -0.5060   -2.0880 C.2     1  UNL1        0.0000
     11  C          9.0390    0.4690   -1.6460 C.2     1  UNL1        0.0000
     12  C          8.2850   -0.4110   -2.3890 C.2     1  UNL1        0.0000
@<TRIPOS>BOND
     1    12    10    2
     2    12    11    1
     3    10     8    1
     4    11     9    2
     5     8     7    2
     6     9     7    1
     7     7     6    1
     8     1     6    1
     9     1     2    1
    10     2     3    2
    11     2     4    1
    12     4     5    1
