@<TRIPOS>MOLECULE
/home/cewinharhar/GITHUB/reincatalyze/data/processed/docking_pred/2023-Apr-25-2248_maxeplen10_maxtrainstep1000_exh16_gamma099_lrac3e-4_lrcr1e-3/bdfc35a41e3d78d3bf59a6b88613069133e00868_ligand_2.pdbqt
 12 12 0 0 0
SMALL
GASTEIGER

@<TRIPOS>ATOM
      1  C          8.5280    0.6380   -1.6840 C.3     1  UNL1        0.1270
      2  C          9.6750    0.2740   -0.8330 C.2     1  UNL1        0.3030
      3  O          9.4930   -0.5130    0.1360 O.2     1  UNL1       -0.2520
      4  O         10.9650    0.7720   -1.0630 O.3     1  UNL1       -0.4810
      5  H         11.5940    0.2350   -1.6450 H       1  UNL1        0.2960
      6  C          7.3350   -0.2740   -1.4600 C.3     1  UNL1        0.0470
      7  C          6.4430    0.2660   -0.4000 C.2     1  UNL1       -0.0470
      8  C          5.8040    1.4860   -0.5670 C.2     1  UNL1        0.0040
      9  C          6.2100   -0.3960    0.7910 C.2     1  UNL1        0.0040
     10  C          4.9810    2.0180    0.4000 C.2     1  UNL1        0.0000
     11  C          5.3860    0.1370    1.7580 C.2     1  UNL1        0.0000
     12  C          4.7570    1.3490    1.5860 C.2     1  UNL1        0.0000
@<TRIPOS>BOND
     1     1     6    1
     2     1     2    1
     3     5     4    1
     4     6     7    1
     5     4     2    1
     6     2     3    2
     7     8     7    2
     8     8    10    1
     9     7     9    1
    10    10    12    2
    11     9    11    2
    12    12    11    1
