@<TRIPOS>MOLECULE
/home/cewinharhar/GITHUB/reincatalyze/data/processed/docking_pred/2023-Apr-25-2248_maxeplen10_maxtrainstep1000_exh16_gamma099_lrac3e-4_lrcr1e-3/bdfc35a41e3d78d3bf59a6b88613069133e00868_ligand_2.pdbqt
 12 12 0 0 0
SMALL
GASTEIGER

@<TRIPOS>ATOM
      1  C          8.3960   -0.6540   -2.1250 C.3     1  UNL1        0.1270
      2  C          8.4010   -1.9110   -2.8930 C.2     1  UNL1        0.3030
      3  O          7.3010   -2.4220   -3.2390 O.2     1  UNL1       -0.2520
      4  O          9.5890   -2.5620   -3.2560 O.3     1  UNL1       -0.4810
      5  H         10.0980   -3.0710   -2.5450 H       1  UNL1        0.2960
      6  C          7.0330    0.0160   -2.1300 C.3     1  UNL1        0.0470
      7  C          6.4810    0.1110   -0.7540 C.2     1  UNL1       -0.0470
      8  C          6.6100   -0.9480    0.1340 C.2     1  UNL1        0.0040
      9  C          5.8130    1.2290   -0.2900 C.2     1  UNL1        0.0040
     10  C          6.1000   -0.8960    1.4120 C.2     1  UNL1        0.0000
     11  C          5.3040    1.2800    0.9900 C.2     1  UNL1        0.0000
     12  C          5.4340    0.2250    1.8650 C.2     1  UNL1        0.0000
@<TRIPOS>BOND
     1     4     2    1
     2     4     5    1
     3     3     2    2
     4     2     1    1
     5     6     1    1
     6     6     7    1
     7     7     9    2
     8     7     8    1
     9     9    11    1
    10     8    10    2
    11    11    12    2
    12    10    12    1
