@<TRIPOS>MOLECULE
/home/cewinharhar/GITHUB/reincatalyze/data/processed/docking_pred/2023-Apr-25-2248_maxeplen10_maxtrainstep1000_exh16_gamma099_lrac3e-4_lrcr1e-3/bdfc35a41e3d78d3bf59a6b88613069133e00868_ligand_2.pdbqt
 12 12 0 0 0
SMALL
GASTEIGER

@<TRIPOS>ATOM
      1  C          8.4080   -0.5940   -2.2180 C.3     1  UNL1        0.1270
      2  C          8.4370   -1.8900   -2.9190 C.2     1  UNL1        0.3030
      3  O          9.5410   -2.4800   -3.0710 O.2     1  UNL1       -0.2520
      4  O          7.2760   -2.4920   -3.4250 O.3     1  UNL1       -0.4810
      5  H          6.6510   -2.9570   -2.7790 H       1  UNL1        0.2960
      6  C          7.0150    0.0090   -2.1840 C.3     1  UNL1        0.0470
      7  C          6.4950    0.0700   -0.7930 C.2     1  UNL1       -0.0470
      8  C          5.8670    1.2140   -0.3210 C.2     1  UNL1        0.0040
      9  C          6.6130   -0.9820    0.0970 C.2     1  UNL1        0.0040
     10  C          5.3830    1.3050    0.9640 C.2     1  UNL1        0.0000
     11  C          6.1280   -0.8890    1.3840 C.2     1  UNL1        0.0000
     12  C          5.5070    0.2500    1.8450 C.2     1  UNL1        0.0000
@<TRIPOS>BOND
     1     4     2    1
     2     4     5    1
     3     3     2    2
     4     2     1    1
     5     1     6    1
     6     6     7    1
     7     7     8    2
     8     7     9    1
     9     8    10    1
    10     9    11    2
    11    10    12    2
    12    11    12    1
