MODEL 1
REMARK VINA RESULT:      -7.3      0.000      0.000
REMARK SMILES O=C(O)CCc1ccccc1
REMARK SMILES IDX 4 1 2 2 1 3 3 4 5 6 6 7 7 8 11 9 8 10 10 11 9 12
REMARK H PARENT 3 5
REMARK Flexibility Score: inf
ROOT
ATOM      1  C   UNL     1       8.408  -0.594  -2.218  1.00  0.00     0.127 C 
ENDROOT
BRANCH   1   2
ATOM      2  C   UNL     1       8.437  -1.890  -2.919  1.00  0.00     0.303 C 
ATOM      3  O   UNL     1       9.541  -2.480  -3.071  1.00  0.00    -0.252 OA
BRANCH   2   4
ATOM      4  O   UNL     1       7.276  -2.492  -3.425  1.00  0.00    -0.481 OA
ATOM      5  H   UNL     1       6.651  -2.957  -2.779  1.00  0.00     0.296 HD
ENDBRANCH   2   4
ENDBRANCH   1   2
BRANCH   1   6
ATOM      6  C   UNL     1       7.015   0.009  -2.184  1.00  0.00     0.047 C 
BRANCH   6   7
ATOM      7  C   UNL     1       6.495   0.070  -0.793  1.00  0.00    -0.047 A 
ATOM      8  C   UNL     1       5.867   1.214  -0.321  1.00  0.00     0.004 A 
ATOM      9  C   UNL     1       6.613  -0.982   0.097  1.00  0.00     0.004 A 
ATOM     10  C   UNL     1       5.383   1.305   0.964  1.00  0.00     0.000 A 
ATOM     11  C   UNL     1       6.128  -0.889   1.384  1.00  0.00     0.000 A 
ATOM     12  C   UNL     1       5.507   0.250   1.845  1.00  0.00     0.000 A 
ENDBRANCH   6   7
ENDBRANCH   1   6
TORSDOF 4
ENDMDL
MODEL 2
REMARK VINA RESULT:      -7.3      0.107      1.723
REMARK SMILES O=C(O)CCc1ccccc1
REMARK SMILES IDX 4 1 2 2 1 3 3 4 5 6 6 7 7 8 11 9 8 10 10 11 9 12
REMARK H PARENT 3 5
REMARK Flexibility Score: inf
ROOT
ATOM      1  C   UNL     1       8.396  -0.654  -2.125  1.00  0.00     0.127 C 
ENDROOT
BRANCH   1   2
ATOM      2  C   UNL     1       8.401  -1.911  -2.893  1.00  0.00     0.303 C 
ATOM      3  O   UNL     1       7.301  -2.422  -3.239  1.00  0.00    -0.252 OA
BRANCH   2   4
ATOM      4  O   UNL     1       9.589  -2.562  -3.256  1.00  0.00    -0.481 OA
ATOM      5  H   UNL     1      10.098  -3.071  -2.545  1.00  0.00     0.296 HD
ENDBRANCH   2   4
ENDBRANCH   1   2
BRANCH   1   6
ATOM      6  C   UNL     1       7.033   0.016  -2.130  1.00  0.00     0.047 C 
BRANCH   6   7
ATOM      7  C   UNL     1       6.481   0.111  -0.754  1.00  0.00    -0.047 A 
ATOM      8  C   UNL     1       6.610  -0.948   0.134  1.00  0.00     0.004 A 
ATOM      9  C   UNL     1       5.813   1.229  -0.290  1.00  0.00     0.004 A 
ATOM     10  C   UNL     1       6.100  -0.896   1.412  1.00  0.00     0.000 A 
ATOM     11  C   UNL     1       5.304   1.280   0.990  1.00  0.00     0.000 A 
ATOM     12  C   UNL     1       5.434   0.225   1.865  1.00  0.00     0.000 A 
ENDBRANCH   6   7
ENDBRANCH   1   6
TORSDOF 4
ENDMDL
MODEL 3
REMARK VINA RESULT:      -6.8      3.391      5.080
REMARK SMILES O=C(O)CCc1ccccc1
REMARK SMILES IDX 4 1 2 2 1 3 3 4 5 6 6 7 7 8 11 9 8 10 10 11 9 12
REMARK H PARENT 3 5
REMARK Flexibility Score: inf
ROOT
ATOM      1  C   UNL     1       4.999   1.802   0.725  1.00  0.00     0.127 C 
ENDROOT
BRANCH   1   2
ATOM      2  C   UNL     1       4.472   1.122   1.922  1.00  0.00     0.303 C 
ATOM      3  O   UNL     1       5.160   0.213   2.462  1.00  0.00    -0.252 OA
BRANCH   2   4
ATOM      4  O   UNL     1       3.230   1.450   2.483  1.00  0.00    -0.481 OA
ATOM      5  H   UNL     1       3.207   1.824   3.422  1.00  0.00     0.296 HD
ENDBRANCH   2   4
ENDBRANCH   1   2
BRANCH   1   6
ATOM      6  C   UNL     1       6.511   1.934   0.760  1.00  0.00     0.047 C 
BRANCH   6   7
ATOM      7  C   UNL     1       7.140   1.139  -0.327  1.00  0.00    -0.047 A 
ATOM      8  C   UNL     1       6.387   0.252  -1.082  1.00  0.00     0.004 A 
ATOM      9  C   UNL     1       8.485   1.228  -0.638  1.00  0.00     0.004 A 
ATOM     10  C   UNL     1       6.941  -0.506  -2.088  1.00  0.00     0.000 A 
ATOM     11  C   UNL     1       9.039   0.469  -1.646  1.00  0.00     0.000 A 
ATOM     12  C   UNL     1       8.285  -0.411  -2.389  1.00  0.00     0.000 A 
ENDBRANCH   6   7
ENDBRANCH   1   6
TORSDOF 4
ENDMDL
MODEL 4
REMARK VINA RESULT:      -6.6      1.901      2.951
REMARK SMILES O=C(O)CCc1ccccc1
REMARK SMILES IDX 4 1 2 2 1 3 3 4 5 6 6 7 7 8 11 9 8 10 10 11 9 12
REMARK H PARENT 3 5
REMARK Flexibility Score: inf
ROOT
ATOM      1  C   UNL     1       8.127  -1.603   1.181  1.00  0.00     0.127 C 
ENDROOT
BRANCH   1   2
ATOM      2  C   UNL     1       8.462  -2.774   0.350  1.00  0.00     0.303 C 
ATOM      3  O   UNL     1       9.147  -3.706   0.852  1.00  0.00    -0.252 OA
BRANCH   2   4
ATOM      4  O   UNL     1       8.042  -2.888  -0.983  1.00  0.00    -0.481 OA
ATOM      5  H   UNL     1       8.670  -3.313  -1.652  1.00  0.00     0.296 HD
ENDBRANCH   2   4
ENDBRANCH   1   2
BRANCH   1   6
ATOM      6  C   UNL     1       6.634  -1.481   1.426  1.00  0.00     0.047 C 
BRANCH   6   7
ATOM      7  C   UNL     1       6.105  -0.209   0.869  1.00  0.00    -0.047 A 
ATOM      8  C   UNL     1       6.377   0.157  -0.442  1.00  0.00     0.004 A 
ATOM      9  C   UNL     1       5.338   0.671   1.610  1.00  0.00     0.004 A 
ATOM     10  C   UNL     1       5.911   1.333  -0.984  1.00  0.00     0.000 A 
ATOM     11  C   UNL     1       4.872   1.849   1.066  1.00  0.00     0.000 A 
ATOM     12  C   UNL     1       5.147   2.205  -0.235  1.00  0.00     0.000 A 
ENDBRANCH   6   7
ENDBRANCH   1   6
TORSDOF 4
ENDMDL
MODEL 5
REMARK VINA RESULT:      -6.5      2.065      2.393
REMARK SMILES O=C(O)CCc1ccccc1
REMARK SMILES IDX 4 1 2 2 1 3 3 4 5 6 6 7 7 8 11 9 8 10 10 11 9 12
REMARK H PARENT 3 5
REMARK Flexibility Score: inf
ROOT
ATOM      1  C   UNL     1       8.528   0.638  -1.684  1.00  0.00     0.127 C 
ENDROOT
BRANCH   1   2
ATOM      2  C   UNL     1       9.675   0.274  -0.833  1.00  0.00     0.303 C 
ATOM      3  O   UNL     1       9.493  -0.513   0.136  1.00  0.00    -0.252 OA
BRANCH   2   4
ATOM      4  O   UNL     1      10.965   0.772  -1.063  1.00  0.00    -0.481 OA
ATOM      5  H   UNL     1      11.594   0.235  -1.645  1.00  0.00     0.296 HD
ENDBRANCH   2   4
ENDBRANCH   1   2
BRANCH   1   6
ATOM      6  C   UNL     1       7.335  -0.274  -1.460  1.00  0.00     0.047 C 
BRANCH   6   7
ATOM      7  C   UNL     1       6.443   0.266  -0.400  1.00  0.00    -0.047 A 
ATOM      8  C   UNL     1       5.804   1.486  -0.567  1.00  0.00     0.004 A 
ATOM      9  C   UNL     1       6.210  -0.396   0.791  1.00  0.00     0.004 A 
ATOM     10  C   UNL     1       4.981   2.018   0.400  1.00  0.00     0.000 A 
ATOM     11  C   UNL     1       5.386   0.137   1.758  1.00  0.00     0.000 A 
ATOM     12  C   UNL     1       4.757   1.349   1.586  1.00  0.00     0.000 A 
ENDBRANCH   6   7
ENDBRANCH   1   6
TORSDOF 4
ENDMDL
