@<TRIPOS>MOLECULE
/home/cewinharhar/GITHUB/reincatalyze/data/processed/docking_pred/2023-Apr-25-2248_maxeplen10_maxtrainstep1000_exh16_gamma099_lrac3e-4_lrcr1e-3/be159ddb300952c005bf82764a5ce22912cca304_ligand_2.pdbqt
 12 12 0 0 0
SMALL
GASTEIGER

@<TRIPOS>ATOM
      1  C          8.1250   -1.7090    1.2080 C.3     1  UNL1        0.1270
      2  C          8.5040   -2.8540    0.3600 C.2     1  UNL1        0.3030
      3  O          9.2210   -3.7680    0.8500 O.2     1  UNL1       -0.2520
      4  O          8.0930   -2.9630   -0.9760 O.3     1  UNL1       -0.4810
      5  H          7.7050   -2.1480   -1.4310 H       1  UNL1        0.2960
      6  C          6.6210   -1.5930    1.3760 C.3     1  UNL1        0.0470
      7  C          6.1230   -0.3000    0.8390 C.2     1  UNL1       -0.0470
      8  C          6.3860    0.0700   -0.4720 C.2     1  UNL1        0.0040
      9  C          5.3940    0.5950    1.6000 C.2     1  UNL1        0.0040
     10  C          5.9480    1.2640   -0.9960 C.2     1  UNL1        0.0000
     11  C          4.9560    1.7910    1.0730 C.2     1  UNL1        0.0000
     12  C          5.2220    2.1520   -0.2280 C.2     1  UNL1        0.0000
@<TRIPOS>BOND
     1     5     4    1
     2    10     8    1
     3    10    12    2
     4     4     2    1
     5     8     7    2
     6    12    11    1
     7     2     3    2
     8     2     1    1
     9     7     6    1
    10     7     9    1
    11    11     9    2
    12     1     6    1
