@<TRIPOS>MOLECULE
/home/cewinharhar/GITHUB/reincatalyze/data/processed/docking_pred/2023-Apr-25-2248_maxeplen10_maxtrainstep1000_exh16_gamma099_lrac3e-4_lrcr1e-3/be159ddb300952c005bf82764a5ce22912cca304_ligand_2.pdbqt
 12 12 0 0 0
SMALL
GASTEIGER

@<TRIPOS>ATOM
      1  C          8.3120    0.4030   -1.9540 C.3     1  UNL1        0.1270
      2  C          9.4780    0.3910   -1.0540 C.2     1  UNL1        0.3030
      3  O          9.4940   -0.4130   -0.0820 O.2     1  UNL1       -0.2520
      4  O         10.5760    1.2440   -1.2400 O.3     1  UNL1       -0.4810
      5  H         11.2150    1.0510   -1.9990 H       1  UNL1        0.2960
      6  C          7.2010   -0.5090   -1.4660 C.3     1  UNL1        0.0470
      7  C          6.3830    0.1590   -0.4200 C.2     1  UNL1       -0.0470
      8  C          6.1840   -0.4430    0.8140 C.2     1  UNL1        0.0040
      9  C          5.7790    1.3880   -0.6150 C.2     1  UNL1        0.0040
     10  C          5.4240    0.1450    1.7990 C.2     1  UNL1        0.0000
     11  C          5.0180    1.9750    0.3730 C.2     1  UNL1        0.0000
     12  C          4.8240    1.3710    1.5950 C.2     1  UNL1        0.0000
@<TRIPOS>BOND
     1     5     4    1
     2     1     6    1
     3     1     2    1
     4     6     7    1
     5     4     2    1
     6     2     3    2
     7     9     7    2
     8     9    11    1
     9     7     8    1
    10    11    12    2
    11     8    10    2
    12    12    10    1
