@<TRIPOS>MOLECULE
/home/cewinharhar/GITHUB/reincatalyze/data/processed/docking_pred/2023-Apr-25-2248_maxeplen10_maxtrainstep1000_exh16_gamma099_lrac3e-4_lrcr1e-3/be159ddb300952c005bf82764a5ce22912cca304_ligand_2.pdbqt
 12 12 0 0 0
SMALL
GASTEIGER

@<TRIPOS>ATOM
      1  C          5.0020    1.7750    0.7130 C.3     1  UNL1        0.1270
      2  C          4.4750    1.1140    1.9200 C.2     1  UNL1        0.3030
      3  O          5.1590    0.2100    2.4710 O.2     1  UNL1       -0.2520
      4  O          3.2350    1.4570    2.4790 O.3     1  UNL1       -0.4810
      5  H          3.2190    1.8830    3.3950 H       1  UNL1        0.2960
      6  C          6.5140    1.9140    0.7490 C.3     1  UNL1        0.0470
      7  C          7.1470    1.1220   -0.3380 C.2     1  UNL1       -0.0470
      8  C          6.3990    0.2290   -1.0910 C.2     1  UNL1        0.0040
      9  C          8.4910    1.2190   -0.6490 C.2     1  UNL1        0.0040
     10  C          6.9580   -0.5260   -2.0970 C.2     1  UNL1        0.0000
     11  C          9.0490    0.4630   -1.6570 C.2     1  UNL1        0.0000
     12  C          8.3010   -0.4230   -2.3990 C.2     1  UNL1        0.0000
@<TRIPOS>BOND
     1    12    10    2
     2    12    11    1
     3    10     8    1
     4    11     9    2
     5     8     7    2
     6     9     7    1
     7     7     6    1
     8     1     6    1
     9     1     2    1
    10     2     3    2
    11     2     4    1
    12     4     5    1
