MODEL 1
REMARK VINA RESULT:      -7.3      0.000      0.000
REMARK SMILES O=C(O)CCc1ccccc1
REMARK SMILES IDX 4 1 2 2 1 3 3 4 5 6 6 7 7 8 11 9 8 10 10 11 9 12
REMARK H PARENT 3 5
REMARK Flexibility Score: inf
ROOT
ATOM      1  C   UNL     1       8.405  -0.612  -2.179  1.00  0.00     0.127 C 
ENDROOT
BRANCH   1   2
ATOM      2  C   UNL     1       8.445  -1.886  -2.918  1.00  0.00     0.303 C 
ATOM      3  O   UNL     1       9.556  -2.455  -3.097  1.00  0.00    -0.252 OA
BRANCH   2   4
ATOM      4  O   UNL     1       7.288  -2.491  -3.431  1.00  0.00    -0.481 OA
ATOM      5  H   UNL     1       7.370  -3.399  -3.866  1.00  0.00     0.296 HD
ENDBRANCH   2   4
ENDBRANCH   1   2
BRANCH   1   6
ATOM      6  C   UNL     1       7.017   0.005  -2.174  1.00  0.00     0.047 C 
BRANCH   6   7
ATOM      7  C   UNL     1       6.487   0.112  -0.789  1.00  0.00    -0.047 A 
ATOM      8  C   UNL     1       6.589  -0.955   0.092  1.00  0.00     0.004 A 
ATOM      9  C   UNL     1       5.866   1.251  -0.312  1.00  0.00     0.004 A 
ATOM     10  C   UNL     1       6.099  -0.892   1.376  1.00  0.00     0.000 A 
ATOM     11  C   UNL     1       5.376   1.314   0.975  1.00  0.00     0.000 A 
ATOM     12  C   UNL     1       5.479   0.250   1.843  1.00  0.00     0.000 A 
ENDBRANCH   6   7
ENDBRANCH   1   6
TORSDOF 4
ENDMDL
MODEL 2
REMARK VINA RESULT:      -7.2      0.097      1.723
REMARK SMILES O=C(O)CCc1ccccc1
REMARK SMILES IDX 4 1 2 2 1 3 3 4 5 6 6 7 7 8 11 9 8 10 10 11 9 12
REMARK H PARENT 3 5
REMARK Flexibility Score: inf
ROOT
ATOM      1  C   UNL     1       8.394  -0.640  -2.151  1.00  0.00     0.127 C 
ENDROOT
BRANCH   1   2
ATOM      2  C   UNL     1       8.398  -1.912  -2.895  1.00  0.00     0.303 C 
ATOM      3  O   UNL     1       7.298  -2.418  -3.248  1.00  0.00    -0.252 OA
BRANCH   2   4
ATOM      4  O   UNL     1       9.584  -2.581  -3.227  1.00  0.00    -0.481 OA
ATOM      5  H   UNL     1       9.891  -2.573  -4.190  1.00  0.00     0.296 HD
ENDBRANCH   2   4
ENDBRANCH   1   2
BRANCH   1   6
ATOM      6  C   UNL     1       7.024   0.013  -2.136  1.00  0.00     0.047 C 
BRANCH   6   7
ATOM      7  C   UNL     1       6.479   0.077  -0.755  1.00  0.00    -0.047 A 
ATOM      8  C   UNL     1       5.805   1.206  -0.312  1.00  0.00     0.004 A 
ATOM      9  C   UNL     1       6.617  -0.957   0.153  1.00  0.00     0.004 A 
ATOM     10  C   UNL     1       5.299   1.300   0.964  1.00  0.00     0.000 A 
ATOM     11  C   UNL     1       6.109  -0.861   1.431  1.00  0.00     0.000 A 
ATOM     12  C   UNL     1       5.443   0.263   1.863  1.00  0.00     0.000 A 
ENDBRANCH   6   7
ENDBRANCH   1   6
TORSDOF 4
ENDMDL
MODEL 3
REMARK VINA RESULT:      -6.8      3.394      5.069
REMARK SMILES O=C(O)CCc1ccccc1
REMARK SMILES IDX 4 1 2 2 1 3 3 4 5 6 6 7 7 8 11 9 8 10 10 11 9 12
REMARK H PARENT 3 5
REMARK Flexibility Score: inf
ROOT
ATOM      1  C   UNL     1       5.002   1.775   0.713  1.00  0.00     0.127 C 
ENDROOT
BRANCH   1   2
ATOM      2  C   UNL     1       4.475   1.114   1.920  1.00  0.00     0.303 C 
ATOM      3  O   UNL     1       5.159   0.210   2.471  1.00  0.00    -0.252 OA
BRANCH   2   4
ATOM      4  O   UNL     1       3.235   1.457   2.479  1.00  0.00    -0.481 OA
ATOM      5  H   UNL     1       3.219   1.883   3.395  1.00  0.00     0.296 HD
ENDBRANCH   2   4
ENDBRANCH   1   2
BRANCH   1   6
ATOM      6  C   UNL     1       6.514   1.914   0.749  1.00  0.00     0.047 C 
BRANCH   6   7
ATOM      7  C   UNL     1       7.147   1.122  -0.338  1.00  0.00    -0.047 A 
ATOM      8  C   UNL     1       6.399   0.229  -1.091  1.00  0.00     0.004 A 
ATOM      9  C   UNL     1       8.491   1.219  -0.649  1.00  0.00     0.004 A 
ATOM     10  C   UNL     1       6.958  -0.526  -2.097  1.00  0.00     0.000 A 
ATOM     11  C   UNL     1       9.049   0.463  -1.657  1.00  0.00     0.000 A 
ATOM     12  C   UNL     1       8.301  -0.423  -2.399  1.00  0.00     0.000 A 
ENDBRANCH   6   7
ENDBRANCH   1   6
TORSDOF 4
ENDMDL
MODEL 4
REMARK VINA RESULT:      -6.6      1.990      2.336
REMARK SMILES O=C(O)CCc1ccccc1
REMARK SMILES IDX 4 1 2 2 1 3 3 4 5 6 6 7 7 8 11 9 8 10 10 11 9 12
REMARK H PARENT 3 5
REMARK Flexibility Score: inf
ROOT
ATOM      1  C   UNL     1       8.312   0.403  -1.954  1.00  0.00     0.127 C 
ENDROOT
BRANCH   1   2
ATOM      2  C   UNL     1       9.478   0.391  -1.054  1.00  0.00     0.303 C 
ATOM      3  O   UNL     1       9.494  -0.413  -0.082  1.00  0.00    -0.252 OA
BRANCH   2   4
ATOM      4  O   UNL     1      10.576   1.244  -1.240  1.00  0.00    -0.481 OA
ATOM      5  H   UNL     1      11.215   1.051  -1.999  1.00  0.00     0.296 HD
ENDBRANCH   2   4
ENDBRANCH   1   2
BRANCH   1   6
ATOM      6  C   UNL     1       7.201  -0.509  -1.466  1.00  0.00     0.047 C 
BRANCH   6   7
ATOM      7  C   UNL     1       6.383   0.159  -0.420  1.00  0.00    -0.047 A 
ATOM      8  C   UNL     1       6.184  -0.443   0.814  1.00  0.00     0.004 A 
ATOM      9  C   UNL     1       5.779   1.388  -0.615  1.00  0.00     0.004 A 
ATOM     10  C   UNL     1       5.424   0.145   1.799  1.00  0.00     0.000 A 
ATOM     11  C   UNL     1       5.018   1.975   0.373  1.00  0.00     0.000 A 
ATOM     12  C   UNL     1       4.824   1.371   1.595  1.00  0.00     0.000 A 
ENDBRANCH   6   7
ENDBRANCH   1   6
TORSDOF 4
ENDMDL
MODEL 5
REMARK VINA RESULT:      -6.5      1.899      2.883
REMARK SMILES O=C(O)CCc1ccccc1
REMARK SMILES IDX 4 1 2 2 1 3 3 4 5 6 6 7 7 8 11 9 8 10 10 11 9 12
REMARK H PARENT 3 5
REMARK Flexibility Score: inf
ROOT
ATOM      1  C   UNL     1       8.125  -1.709   1.208  1.00  0.00     0.127 C 
ENDROOT
BRANCH   1   2
ATOM      2  C   UNL     1       8.504  -2.854   0.360  1.00  0.00     0.303 C 
ATOM      3  O   UNL     1       9.221  -3.768   0.850  1.00  0.00    -0.252 OA
BRANCH   2   4
ATOM      4  O   UNL     1       8.093  -2.963  -0.976  1.00  0.00    -0.481 OA
ATOM      5  H   UNL     1       7.705  -2.148  -1.431  1.00  0.00     0.296 HD
ENDBRANCH   2   4
ENDBRANCH   1   2
BRANCH   1   6
ATOM      6  C   UNL     1       6.621  -1.593   1.376  1.00  0.00     0.047 C 
BRANCH   6   7
ATOM      7  C   UNL     1       6.123  -0.300   0.839  1.00  0.00    -0.047 A 
ATOM      8  C   UNL     1       6.386   0.070  -0.472  1.00  0.00     0.004 A 
ATOM      9  C   UNL     1       5.394   0.595   1.600  1.00  0.00     0.004 A 
ATOM     10  C   UNL     1       5.948   1.264  -0.996  1.00  0.00     0.000 A 
ATOM     11  C   UNL     1       4.956   1.791   1.073  1.00  0.00     0.000 A 
ATOM     12  C   UNL     1       5.222   2.152  -0.228  1.00  0.00     0.000 A 
ENDBRANCH   6   7
ENDBRANCH   1   6
TORSDOF 4
ENDMDL
