@<TRIPOS>MOLECULE
/home/cewinharhar/GITHUB/reincatalyze/data/processed/docking_pred/2023-Apr-25-2248_maxeplen10_maxtrainstep1000_exh16_gamma099_lrac3e-4_lrcr1e-3/bef029ec7f2d3d0301694813bb63cef4e6663bb8_ligand_2.pdbqt
 12 12 0 0 0
SMALL
GASTEIGER

@<TRIPOS>ATOM
      1  C          5.3870    2.9130    0.2310 C.3     1  UNL1        0.1270
      2  C          6.2410    3.8920    0.9270 C.2     1  UNL1        0.3030
      3  O          6.8780    4.7420    0.2460 O.2     1  UNL1       -0.2520
      4  O          6.3680    3.9150    2.3230 O.3     1  UNL1       -0.4810
      5  H          5.6190    3.5310    2.8830 H       1  UNL1        0.2960
      6  C          5.3360    1.5800    0.9560 C.3     1  UNL1        0.0470
      7  C          6.0770    0.5350    0.2010 C.2     1  UNL1       -0.0470
      8  C          6.5270   -0.6130    0.8390 C.2     1  UNL1        0.0040
      9  C          6.3640    0.6470   -1.1470 C.2     1  UNL1        0.0040
     10  C          7.2240   -1.5930    0.1710 C.2     1  UNL1        0.0000
     11  C          7.0630   -0.3360   -1.8140 C.2     1  UNL1        0.0000
     12  C          7.5070   -1.4710   -1.1750 C.2     1  UNL1        0.0000
@<TRIPOS>BOND
     1    11    12    2
     2    11     9    1
     3    12    10    1
     4     9     7    2
     5    10     8    2
     6     7     8    1
     7     7     6    1
     8     1     2    1
     9     1     6    1
    10     3     2    2
    11     2     4    1
    12     4     5    1
