@<TRIPOS>MOLECULE
/home/cewinharhar/GITHUB/reincatalyze/data/processed/docking_pred/2023-Apr-25-2248_maxeplen10_maxtrainstep1000_exh16_gamma099_lrac3e-4_lrcr1e-3/bef029ec7f2d3d0301694813bb63cef4e6663bb8_ligand_2.pdbqt
 12 12 0 0 0
SMALL
GASTEIGER

@<TRIPOS>ATOM
      1  C          8.4400   -0.6790   -2.0920 C.3     1  UNL1        0.1270
      2  C          8.4230   -1.9280   -2.8740 C.2     1  UNL1        0.3030
      3  O          7.3140   -2.4240   -3.2110 O.2     1  UNL1       -0.2520
      4  O          9.6000   -2.5850   -3.2600 O.3     1  UNL1       -0.4810
      5  H         10.1010   -3.1260   -2.5680 H       1  UNL1        0.2960
      6  C          7.1030    0.0390   -2.1270 C.3     1  UNL1        0.0470
      7  C          6.5060    0.1220   -0.7690 C.2     1  UNL1       -0.0470
      8  C          5.8010    1.2490   -0.3730 C.2     1  UNL1        0.0040
      9  C          6.6250   -0.8930    0.1640 C.2     1  UNL1        0.0040
     10  C          5.2460    1.3610    0.8810 C.2     1  UNL1        0.0000
     11  C          6.0680   -0.7790    1.4200 C.2     1  UNL1        0.0000
     12  C          5.3710    0.3430    1.8050 C.2     1  UNL1        0.0000
@<TRIPOS>BOND
     1     4     2    1
     2     4     5    1
     3     3     2    2
     4     2     1    1
     5     6     1    1
     6     6     7    1
     7     7     8    2
     8     7     9    1
     9     8    10    1
    10     9    11    2
    11    10    12    2
    12    11    12    1
