@<TRIPOS>MOLECULE
/home/cewinharhar/GITHUB/reincatalyze/data/processed/docking_pred/2023-Apr-25-2248_maxeplen10_maxtrainstep1000_exh16_gamma099_lrac3e-4_lrcr1e-3/bef029ec7f2d3d0301694813bb63cef4e6663bb8_ligand_2.pdbqt
 12 12 0 0 0
SMALL
GASTEIGER

@<TRIPOS>ATOM
      1  C          8.3560    0.2950   -2.0270 C.3     1  UNL1        0.1270
      2  C          9.4840    0.3940   -1.0830 C.2     1  UNL1        0.3030
      3  O          9.5270   -0.3890   -0.0960 O.2     1  UNL1       -0.2520
      4  O         10.5140    1.3310   -1.2460 O.3     1  UNL1       -0.4810
      5  H         11.4440    0.9950   -1.4590 H       1  UNL1        0.2960
      6  C          7.2380   -0.5840   -1.4950 C.3     1  UNL1        0.0470
      7  C          6.4150    0.1470   -0.4960 C.2     1  UNL1       -0.0470
      8  C          5.8690    1.3860   -0.7990 C.2     1  UNL1        0.0040
      9  C          6.1600   -0.3480    0.7700 C.2     1  UNL1        0.0040
     10  C          5.1110    2.0920    0.1070 C.2     1  UNL1        0.0000
     11  C          5.4020    0.3600    1.6770 C.2     1  UNL1        0.0000
     12  C          4.8640    1.5890    1.3680 C.2     1  UNL1        0.0000
@<TRIPOS>BOND
     1     1     6    1
     2     1     2    1
     3     6     7    1
     4     5     4    1
     5     4     2    1
     6     2     3    2
     7     8     7    2
     8     8    10    1
     9     7     9    1
    10    10    12    2
    11     9    11    2
    12    12    11    1
