MODEL 1
REMARK VINA RESULT:      -7.3      0.000      0.000
REMARK SMILES O=C(O)CCc1ccccc1
REMARK SMILES IDX 4 1 2 2 1 3 3 4 5 6 6 7 7 8 11 9 8 10 10 11 9 12
REMARK H PARENT 3 5
REMARK Flexibility Score: inf
ROOT
ATOM      1  C   UNL     1       8.440  -0.679  -2.092  1.00  0.00     0.127 C 
ENDROOT
BRANCH   1   2
ATOM      2  C   UNL     1       8.423  -1.928  -2.874  1.00  0.00     0.303 C 
ATOM      3  O   UNL     1       7.314  -2.424  -3.211  1.00  0.00    -0.252 OA
BRANCH   2   4
ATOM      4  O   UNL     1       9.600  -2.585  -3.260  1.00  0.00    -0.481 OA
ATOM      5  H   UNL     1      10.101  -3.126  -2.568  1.00  0.00     0.296 HD
ENDBRANCH   2   4
ENDBRANCH   1   2
BRANCH   1   6
ATOM      6  C   UNL     1       7.103   0.039  -2.127  1.00  0.00     0.047 C 
BRANCH   6   7
ATOM      7  C   UNL     1       6.506   0.122  -0.769  1.00  0.00    -0.047 A 
ATOM      8  C   UNL     1       5.801   1.249  -0.373  1.00  0.00     0.004 A 
ATOM      9  C   UNL     1       6.625  -0.893   0.164  1.00  0.00     0.004 A 
ATOM     10  C   UNL     1       5.246   1.361   0.881  1.00  0.00     0.000 A 
ATOM     11  C   UNL     1       6.068  -0.779   1.420  1.00  0.00     0.000 A 
ATOM     12  C   UNL     1       5.371   0.343   1.805  1.00  0.00     0.000 A 
ENDBRANCH   6   7
ENDBRANCH   1   6
TORSDOF 4
ENDMDL
MODEL 2
REMARK VINA RESULT:      -7.2      0.132      1.425
REMARK SMILES O=C(O)CCc1ccccc1
REMARK SMILES IDX 4 1 2 2 1 3 3 4 5 6 6 7 7 8 11 9 8 10 10 11 9 12
REMARK H PARENT 3 5
REMARK Flexibility Score: inf
ROOT
ATOM      1  C   UNL     1       8.385  -0.616  -2.180  1.00  0.00     0.127 C 
ENDROOT
BRANCH   1   2
ATOM      2  C   UNL     1       8.400  -1.901  -2.901  1.00  0.00     0.303 C 
ATOM      3  O   UNL     1       7.305  -2.429  -3.234  1.00  0.00    -0.252 OA
BRANCH   2   4
ATOM      4  O   UNL     1       9.594  -2.557  -3.234  1.00  0.00    -0.481 OA
ATOM      5  H   UNL     1      10.388  -2.001  -3.521  1.00  0.00     0.296 HD
ENDBRANCH   2   4
ENDBRANCH   1   2
BRANCH   1   6
ATOM      6  C   UNL     1       7.001   0.009  -2.150  1.00  0.00     0.047 C 
BRANCH   6   7
ATOM      7  C   UNL     1       6.482   0.089  -0.760  1.00  0.00    -0.047 A 
ATOM      8  C   UNL     1       6.612  -0.987   0.107  1.00  0.00     0.004 A 
ATOM      9  C   UNL     1       5.845   1.210  -0.262  1.00  0.00     0.004 A 
ATOM     10  C   UNL     1       6.133  -0.948   1.396  1.00  0.00     0.000 A 
ATOM     11  C   UNL     1       5.365   1.248   1.030  1.00  0.00     0.000 A 
ATOM     12  C   UNL     1       5.497   0.176   1.883  1.00  0.00     0.000 A 
ENDBRANCH   6   7
ENDBRANCH   1   6
TORSDOF 4
ENDMDL
MODEL 3
REMARK VINA RESULT:      -6.8      3.310      5.161
REMARK SMILES O=C(O)CCc1ccccc1
REMARK SMILES IDX 4 1 2 2 1 3 3 4 5 6 6 7 7 8 11 9 8 10 10 11 9 12
REMARK H PARENT 3 5
REMARK Flexibility Score: inf
ROOT
ATOM      1  C   UNL     1       5.011   1.774   0.715  1.00  0.00     0.127 C 
ENDROOT
BRANCH   1   2
ATOM      2  C   UNL     1       4.483   1.110   1.921  1.00  0.00     0.303 C 
ATOM      3  O   UNL     1       5.171   0.210   2.475  1.00  0.00    -0.252 OA
BRANCH   2   4
ATOM      4  O   UNL     1       3.241   1.448   2.477  1.00  0.00    -0.481 OA
ATOM      5  H   UNL     1       2.857   2.363   2.284  1.00  0.00     0.296 HD
ENDBRANCH   2   4
ENDBRANCH   1   2
BRANCH   1   6
ATOM      6  C   UNL     1       6.523   1.905   0.747  1.00  0.00     0.047 C 
BRANCH   6   7
ATOM      7  C   UNL     1       7.151   1.102  -0.334  1.00  0.00    -0.047 A 
ATOM      8  C   UNL     1       6.402   0.190  -1.064  1.00  0.00     0.004 A 
ATOM      9  C   UNL     1       8.490   1.207  -0.663  1.00  0.00     0.004 A 
ATOM     10  C   UNL     1       6.956  -0.576  -2.064  1.00  0.00     0.000 A 
ATOM     11  C   UNL     1       9.043   0.439  -1.665  1.00  0.00     0.000 A 
ATOM     12  C   UNL     1       8.294  -0.465  -2.384  1.00  0.00     0.000 A 
ENDBRANCH   6   7
ENDBRANCH   1   6
TORSDOF 4
ENDMDL
MODEL 4
REMARK VINA RESULT:      -6.6      1.970      2.268
REMARK SMILES O=C(O)CCc1ccccc1
REMARK SMILES IDX 4 1 2 2 1 3 3 4 5 6 6 7 7 8 11 9 8 10 10 11 9 12
REMARK H PARENT 3 5
REMARK Flexibility Score: inf
ROOT
ATOM      1  C   UNL     1       8.356   0.295  -2.027  1.00  0.00     0.127 C 
ENDROOT
BRANCH   1   2
ATOM      2  C   UNL     1       9.484   0.394  -1.083  1.00  0.00     0.303 C 
ATOM      3  O   UNL     1       9.527  -0.389  -0.096  1.00  0.00    -0.252 OA
BRANCH   2   4
ATOM      4  O   UNL     1      10.514   1.331  -1.246  1.00  0.00    -0.481 OA
ATOM      5  H   UNL     1      11.444   0.995  -1.459  1.00  0.00     0.296 HD
ENDBRANCH   2   4
ENDBRANCH   1   2
BRANCH   1   6
ATOM      6  C   UNL     1       7.238  -0.584  -1.495  1.00  0.00     0.047 C 
BRANCH   6   7
ATOM      7  C   UNL     1       6.415   0.147  -0.496  1.00  0.00    -0.047 A 
ATOM      8  C   UNL     1       5.869   1.386  -0.799  1.00  0.00     0.004 A 
ATOM      9  C   UNL     1       6.160  -0.348   0.770  1.00  0.00     0.004 A 
ATOM     10  C   UNL     1       5.111   2.092   0.107  1.00  0.00     0.000 A 
ATOM     11  C   UNL     1       5.402   0.360   1.677  1.00  0.00     0.000 A 
ATOM     12  C   UNL     1       4.864   1.589   1.368  1.00  0.00     0.000 A 
ENDBRANCH   6   7
ENDBRANCH   1   6
TORSDOF 4
ENDMDL
MODEL 5
REMARK VINA RESULT:      -6.5      3.703      5.183
REMARK SMILES O=C(O)CCc1ccccc1
REMARK SMILES IDX 4 1 2 2 1 3 3 4 5 6 6 7 7 8 11 9 8 10 10 11 9 12
REMARK H PARENT 3 5
REMARK Flexibility Score: inf
ROOT
ATOM      1  C   UNL     1       5.387   2.913   0.231  1.00  0.00     0.127 C 
ENDROOT
BRANCH   1   2
ATOM      2  C   UNL     1       6.241   3.892   0.927  1.00  0.00     0.303 C 
ATOM      3  O   UNL     1       6.878   4.742   0.246  1.00  0.00    -0.252 OA
BRANCH   2   4
ATOM      4  O   UNL     1       6.368   3.915   2.323  1.00  0.00    -0.481 OA
ATOM      5  H   UNL     1       5.619   3.531   2.883  1.00  0.00     0.296 HD
ENDBRANCH   2   4
ENDBRANCH   1   2
BRANCH   1   6
ATOM      6  C   UNL     1       5.336   1.580   0.956  1.00  0.00     0.047 C 
BRANCH   6   7
ATOM      7  C   UNL     1       6.077   0.535   0.201  1.00  0.00    -0.047 A 
ATOM      8  C   UNL     1       6.527  -0.613   0.839  1.00  0.00     0.004 A 
ATOM      9  C   UNL     1       6.364   0.647  -1.147  1.00  0.00     0.004 A 
ATOM     10  C   UNL     1       7.224  -1.593   0.171  1.00  0.00     0.000 A 
ATOM     11  C   UNL     1       7.063  -0.336  -1.814  1.00  0.00     0.000 A 
ATOM     12  C   UNL     1       7.507  -1.471  -1.175  1.00  0.00     0.000 A 
ENDBRANCH   6   7
ENDBRANCH   1   6
TORSDOF 4
ENDMDL
