@<TRIPOS>MOLECULE
/home/cewinharhar/GITHUB/reincatalyze/data/processed/docking_pred/2023-Apr-25-2248_maxeplen10_maxtrainstep1000_exh16_gamma099_lrac3e-4_lrcr1e-3/bef029ec7f2d3d0301694813bb63cef4e6663bb8_ligand_2.pdbqt
 12 12 0 0 0
SMALL
GASTEIGER

@<TRIPOS>ATOM
      1  C          8.3850   -0.6160   -2.1800 C.3     1  UNL1        0.1270
      2  C          8.4000   -1.9010   -2.9010 C.2     1  UNL1        0.3030
      3  O          7.3050   -2.4290   -3.2340 O.2     1  UNL1       -0.2520
      4  O          9.5940   -2.5570   -3.2340 O.3     1  UNL1       -0.4810
      5  H         10.3880   -2.0010   -3.5210 H       1  UNL1        0.2960
      6  C          7.0010    0.0090   -2.1500 C.3     1  UNL1        0.0470
      7  C          6.4820    0.0890   -0.7600 C.2     1  UNL1       -0.0470
      8  C          6.6120   -0.9870    0.1070 C.2     1  UNL1        0.0040
      9  C          5.8450    1.2100   -0.2620 C.2     1  UNL1        0.0040
     10  C          6.1330   -0.9480    1.3960 C.2     1  UNL1        0.0000
     11  C          5.3650    1.2480    1.0300 C.2     1  UNL1        0.0000
     12  C          5.4970    0.1760    1.8830 C.2     1  UNL1        0.0000
@<TRIPOS>BOND
     1     5     4    1
     2     3     2    2
     3     4     2    1
     4     2     1    1
     5     1     6    1
     6     6     7    1
     7     7     9    2
     8     7     8    1
     9     9    11    1
    10     8    10    2
    11    11    12    2
    12    10    12    1
