@<TRIPOS>MOLECULE
/home/cewinharhar/GITHUB/reincatalyze/data/processed/docking_pred/2023-Apr-25-2248_maxeplen10_maxtrainstep1000_exh16_gamma099_lrac3e-4_lrcr1e-3/bef029ec7f2d3d0301694813bb63cef4e6663bb8_ligand_2.pdbqt
 12 12 0 0 0
SMALL
GASTEIGER

@<TRIPOS>ATOM
      1  C          5.0110    1.7740    0.7150 C.3     1  UNL1        0.1270
      2  C          4.4830    1.1100    1.9210 C.2     1  UNL1        0.3030
      3  O          5.1710    0.2100    2.4750 O.2     1  UNL1       -0.2520
      4  O          3.2410    1.4480    2.4770 O.3     1  UNL1       -0.4810
      5  H          2.8570    2.3630    2.2840 H       1  UNL1        0.2960
      6  C          6.5230    1.9050    0.7470 C.3     1  UNL1        0.0470
      7  C          7.1510    1.1020   -0.3340 C.2     1  UNL1       -0.0470
      8  C          6.4020    0.1900   -1.0640 C.2     1  UNL1        0.0040
      9  C          8.4900    1.2070   -0.6630 C.2     1  UNL1        0.0040
     10  C          6.9560   -0.5760   -2.0640 C.2     1  UNL1        0.0000
     11  C          9.0430    0.4390   -1.6650 C.2     1  UNL1        0.0000
     12  C          8.2940   -0.4650   -2.3840 C.2     1  UNL1        0.0000
@<TRIPOS>BOND
     1    12    10    2
     2    12    11    1
     3    10     8    1
     4    11     9    2
     5     8     7    2
     6     9     7    1
     7     7     6    1
     8     1     6    1
     9     1     2    1
    10     2     3    2
    11     2     4    1
    12     5     4    1
