@<TRIPOS>MOLECULE
/home/cewinharhar/GITHUB/reincatalyze/data/processed/docking_pred/2023-Apr-25-2248_maxeplen10_maxtrainstep1000_exh16_gamma099_lrac3e-4_lrcr1e-3/bf1bd72bf83e0bbc7f208f1f88a3802cf16c22f1_ligand_2.pdbqt
 12 12 0 0 0
SMALL
GASTEIGER

@<TRIPOS>ATOM
      1  C          5.0470    1.6980    0.7370 C.3     1  UNL1        0.1270
      2  C          4.5700    1.0210    1.9550 C.2     1  UNL1        0.3030
      3  O          5.3080    0.1580    2.5040 O.2     1  UNL1       -0.2520
      4  O          3.3220    1.3040    2.5290 O.3     1  UNL1       -0.4810
      5  H          3.0550    0.8120    3.3710 H       1  UNL1        0.2960
      6  C          6.5570    1.8520    0.7190 C.3     1  UNL1        0.0470
      7  C          7.1620    1.0400   -0.3690 C.2     1  UNL1       -0.0470
      8  C          8.5120    1.1510   -0.6690 C.2     1  UNL1        0.0040
      9  C          6.4300    0.1520   -1.1360 C.2     1  UNL1        0.0040
     10  C          9.1000    0.4210   -1.6760 C.2     1  UNL1        0.0000
     11  C          7.0200   -0.5790   -2.1450 C.2     1  UNL1        0.0000
     12  C          8.3600   -0.4610   -2.4370 C.2     1  UNL1        0.0000
@<TRIPOS>BOND
     1    12    11    2
     2    12    10    1
     3    11     9    1
     4    10     8    2
     5     9     7    2
     6     8     7    1
     7     7     6    1
     8     6     1    1
     9     1     2    1
    10     2     3    2
    11     2     4    1
    12     4     5    1
