@<TRIPOS>MOLECULE
/home/cewinharhar/GITHUB/reincatalyze/data/processed/docking_pred/2023-Apr-25-2248_maxeplen10_maxtrainstep1000_exh16_gamma099_lrac3e-4_lrcr1e-3/bf1bd72bf83e0bbc7f208f1f88a3802cf16c22f1_ligand_2.pdbqt
 12 12 0 0 0
SMALL
GASTEIGER

@<TRIPOS>ATOM
      1  C          5.3900    2.9740    0.1120 C.3     1  UNL1        0.1270
      2  C          6.2410    3.9070    0.8720 C.2     1  UNL1        0.3030
      3  O          6.9080    4.7750    0.2470 O.2     1  UNL1       -0.2520
      4  O          6.3330    3.8650    2.2710 O.3     1  UNL1       -0.4810
      5  H          7.1860    3.5180    2.6890 H       1  UNL1        0.2960
      6  C          5.1990    1.6530    0.8350 C.3     1  UNL1        0.0470
      7  C          5.9970    0.5750    0.1950 C.2     1  UNL1       -0.0470
      8  C          6.4380   -0.5140    0.9340 C.2     1  UNL1        0.0040
      9  C          6.3480    0.5970   -1.1430 C.2     1  UNL1        0.0040
     10  C          7.1870   -1.5220    0.3730 C.2     1  UNL1        0.0000
     11  C          7.0980   -0.4140   -1.7030 C.2     1  UNL1        0.0000
     12  C          7.5330   -1.4900   -0.9630 C.2     1  UNL1        0.0000
@<TRIPOS>BOND
     1    11     9    1
     2    11    12    2
     3     9     7    2
     4    12    10    1
     5     1     6    1
     6     1     2    1
     7     7     6    1
     8     7     8    1
     9     3     2    2
    10    10     8    2
    11     2     4    1
    12     4     5    1
