@<TRIPOS>MOLECULE
/home/cewinharhar/GITHUB/reincatalyze/data/processed/docking_pred/2023-Apr-25-2248_maxeplen10_maxtrainstep1000_exh16_gamma099_lrac3e-4_lrcr1e-3/bf1bd72bf83e0bbc7f208f1f88a3802cf16c22f1_ligand_2.pdbqt
 12 12 0 0 0
SMALL
GASTEIGER

@<TRIPOS>ATOM
      1  C          8.3700   -0.6170   -2.1620 C.3     1  UNL1        0.1270
      2  C          8.3880   -1.8910   -2.9030 C.2     1  UNL1        0.3030
      3  O          7.2940   -2.4200   -3.2400 O.2     1  UNL1       -0.2520
      4  O          9.5840   -2.5380   -3.2500 O.3     1  UNL1       -0.4810
      5  H          9.5810   -3.1670   -4.0410 H       1  UNL1        0.2960
      6  C          6.9900    0.0160   -2.1430 C.3     1  UNL1        0.0470
      7  C          6.4620    0.0990   -0.7570 C.2     1  UNL1       -0.0470
      8  C          6.6090   -0.9640    0.1220 C.2     1  UNL1        0.0040
      9  C          5.7990    1.2130   -0.2750 C.2     1  UNL1        0.0040
     10  C          6.1220   -0.9220    1.4080 C.2     1  UNL1        0.0000
     11  C          5.3110    1.2540    1.0140 C.2     1  UNL1        0.0000
     12  C          5.4600    0.1940    1.8800 C.2     1  UNL1        0.0000
@<TRIPOS>BOND
     1     5     4    1
     2     4     2    1
     3     3     2    2
     4     2     1    1
     5     1     6    1
     6     6     7    1
     7     7     9    2
     8     7     8    1
     9     9    11    1
    10     8    10    2
    11    11    12    2
    12    10    12    1
