@<TRIPOS>MOLECULE
/home/cewinharhar/GITHUB/reincatalyze/data/processed/docking_pred/2023-Apr-25-2248_maxeplen10_maxtrainstep1000_exh16_gamma099_lrac3e-4_lrcr1e-3/bf1bd72bf83e0bbc7f208f1f88a3802cf16c22f1_ligand_2.pdbqt
 12 12 0 0 0
SMALL
GASTEIGER

@<TRIPOS>ATOM
      1  C          8.5340    0.6880   -1.6450 C.3     1  UNL1        0.1270
      2  C          9.6860    0.2850   -0.8190 C.2     1  UNL1        0.3030
      3  O          9.5010   -0.5090    0.1440 O.2     1  UNL1       -0.2520
      4  O         10.9850    0.7520   -1.0670 O.3     1  UNL1       -0.4810
      5  H         11.7080    0.0790   -1.2830 H       1  UNL1        0.2960
      6  C          7.3390   -0.2270   -1.4490 C.3     1  UNL1        0.0470
      7  C          6.4430    0.2890   -0.3810 C.2     1  UNL1       -0.0470
      8  C          5.8010    1.5100   -0.5250 C.2     1  UNL1        0.0040
      9  C          6.2100   -0.3980    0.7970 C.2     1  UNL1        0.0040
     10  C          4.9740    2.0200    0.4500 C.2     1  UNL1        0.0000
     11  C          5.3810    0.1140    1.7720 C.2     1  UNL1        0.0000
     12  C          4.7490    1.3270    1.6230 C.2     1  UNL1        0.0000
@<TRIPOS>BOND
     1     1     6    1
     2     1     2    1
     3     6     7    1
     4     5     4    1
     5     4     2    1
     6     2     3    2
     7     8     7    2
     8     8    10    1
     9     7     9    1
    10    10    12    2
    11     9    11    2
    12    12    11    1
