MODEL 1
REMARK VINA RESULT:      -7.3      0.000      0.000
REMARK SMILES O=C(O)CCc1ccccc1
REMARK SMILES IDX 4 1 2 2 1 3 3 4 5 6 6 7 7 8 11 9 8 10 10 11 9 12
REMARK H PARENT 3 5
REMARK Flexibility Score: inf
ROOT
ATOM      1  C   UNL     1       8.411  -0.655  -2.133  1.00  0.00     0.127 C 
ENDROOT
BRANCH   1   2
ATOM      2  C   UNL     1       8.394  -1.916  -2.895  1.00  0.00     0.303 C 
ATOM      3  O   UNL     1       7.285  -2.403  -3.248  1.00  0.00    -0.252 OA
BRANCH   2   4
ATOM      4  O   UNL     1       9.570  -2.595  -3.243  1.00  0.00    -0.481 OA
ATOM      5  H   UNL     1       9.496  -3.541  -3.594  1.00  0.00     0.296 HD
ENDBRANCH   2   4
ENDBRANCH   1   2
BRANCH   1   6
ATOM      6  C   UNL     1       7.058   0.033  -2.130  1.00  0.00     0.047 C 
BRANCH   6   7
ATOM      7  C   UNL     1       6.493   0.093  -0.757  1.00  0.00    -0.047 A 
ATOM      8  C   UNL     1       5.811   1.220  -0.321  1.00  0.00     0.004 A 
ATOM      9  C   UNL     1       6.619  -0.943   0.150  1.00  0.00     0.004 A 
ATOM     10  C   UNL     1       5.286   1.310   0.948  1.00  0.00     0.000 A 
ATOM     11  C   UNL     1       6.092  -0.851   1.420  1.00  0.00     0.000 A 
ATOM     12  C   UNL     1       5.418   0.271   1.846  1.00  0.00     0.000 A 
ENDBRANCH   6   7
ENDBRANCH   1   6
TORSDOF 4
ENDMDL
MODEL 2
REMARK VINA RESULT:      -7.2      0.061      1.422
REMARK SMILES O=C(O)CCc1ccccc1
REMARK SMILES IDX 4 1 2 2 1 3 3 4 5 6 6 7 7 8 11 9 8 10 10 11 9 12
REMARK H PARENT 3 5
REMARK Flexibility Score: inf
ROOT
ATOM      1  C   UNL     1       8.370  -0.617  -2.162  1.00  0.00     0.127 C 
ENDROOT
BRANCH   1   2
ATOM      2  C   UNL     1       8.388  -1.891  -2.903  1.00  0.00     0.303 C 
ATOM      3  O   UNL     1       7.294  -2.420  -3.240  1.00  0.00    -0.252 OA
BRANCH   2   4
ATOM      4  O   UNL     1       9.584  -2.538  -3.250  1.00  0.00    -0.481 OA
ATOM      5  H   UNL     1       9.581  -3.167  -4.041  1.00  0.00     0.296 HD
ENDBRANCH   2   4
ENDBRANCH   1   2
BRANCH   1   6
ATOM      6  C   UNL     1       6.990   0.016  -2.143  1.00  0.00     0.047 C 
BRANCH   6   7
ATOM      7  C   UNL     1       6.462   0.099  -0.757  1.00  0.00    -0.047 A 
ATOM      8  C   UNL     1       6.609  -0.964   0.122  1.00  0.00     0.004 A 
ATOM      9  C   UNL     1       5.799   1.213  -0.275  1.00  0.00     0.004 A 
ATOM     10  C   UNL     1       6.122  -0.922   1.408  1.00  0.00     0.000 A 
ATOM     11  C   UNL     1       5.311   1.254   1.014  1.00  0.00     0.000 A 
ATOM     12  C   UNL     1       5.460   0.194   1.880  1.00  0.00     0.000 A 
ENDBRANCH   6   7
ENDBRANCH   1   6
TORSDOF 4
ENDMDL
MODEL 3
REMARK VINA RESULT:      -6.8      3.290      5.133
REMARK SMILES O=C(O)CCc1ccccc1
REMARK SMILES IDX 4 1 2 2 1 3 3 4 5 6 6 7 7 8 11 9 8 10 10 11 9 12
REMARK H PARENT 3 5
REMARK Flexibility Score: inf
ROOT
ATOM      1  C   UNL     1       5.047   1.698   0.737  1.00  0.00     0.127 C 
ENDROOT
BRANCH   1   2
ATOM      2  C   UNL     1       4.570   1.021   1.955  1.00  0.00     0.303 C 
ATOM      3  O   UNL     1       5.308   0.158   2.504  1.00  0.00    -0.252 OA
BRANCH   2   4
ATOM      4  O   UNL     1       3.322   1.304   2.529  1.00  0.00    -0.481 OA
ATOM      5  H   UNL     1       3.055   0.812   3.371  1.00  0.00     0.296 HD
ENDBRANCH   2   4
ENDBRANCH   1   2
BRANCH   1   6
ATOM      6  C   UNL     1       6.557   1.852   0.719  1.00  0.00     0.047 C 
BRANCH   6   7
ATOM      7  C   UNL     1       7.162   1.040  -0.369  1.00  0.00    -0.047 A 
ATOM      8  C   UNL     1       8.512   1.151  -0.669  1.00  0.00     0.004 A 
ATOM      9  C   UNL     1       6.430   0.152  -1.136  1.00  0.00     0.004 A 
ATOM     10  C   UNL     1       9.100   0.421  -1.676  1.00  0.00     0.000 A 
ATOM     11  C   UNL     1       7.020  -0.579  -2.145  1.00  0.00     0.000 A 
ATOM     12  C   UNL     1       8.360  -0.461  -2.437  1.00  0.00     0.000 A 
ENDBRANCH   6   7
ENDBRANCH   1   6
TORSDOF 4
ENDMDL
MODEL 4
REMARK VINA RESULT:      -6.5      3.703      5.137
REMARK SMILES O=C(O)CCc1ccccc1
REMARK SMILES IDX 4 1 2 2 1 3 3 4 5 6 6 7 7 8 11 9 8 10 10 11 9 12
REMARK H PARENT 3 5
REMARK Flexibility Score: inf
ROOT
ATOM      1  C   UNL     1       5.390   2.974   0.112  1.00  0.00     0.127 C 
ENDROOT
BRANCH   1   2
ATOM      2  C   UNL     1       6.241   3.907   0.872  1.00  0.00     0.303 C 
ATOM      3  O   UNL     1       6.908   4.775   0.247  1.00  0.00    -0.252 OA
BRANCH   2   4
ATOM      4  O   UNL     1       6.333   3.865   2.271  1.00  0.00    -0.481 OA
ATOM      5  H   UNL     1       7.186   3.518   2.689  1.00  0.00     0.296 HD
ENDBRANCH   2   4
ENDBRANCH   1   2
BRANCH   1   6
ATOM      6  C   UNL     1       5.199   1.653   0.835  1.00  0.00     0.047 C 
BRANCH   6   7
ATOM      7  C   UNL     1       5.997   0.575   0.195  1.00  0.00    -0.047 A 
ATOM      8  C   UNL     1       6.438  -0.514   0.934  1.00  0.00     0.004 A 
ATOM      9  C   UNL     1       6.348   0.597  -1.143  1.00  0.00     0.004 A 
ATOM     10  C   UNL     1       7.187  -1.522   0.373  1.00  0.00     0.000 A 
ATOM     11  C   UNL     1       7.098  -0.414  -1.703  1.00  0.00     0.000 A 
ATOM     12  C   UNL     1       7.533  -1.490  -0.963  1.00  0.00     0.000 A 
ENDBRANCH   6   7
ENDBRANCH   1   6
TORSDOF 4
ENDMDL
MODEL 5
REMARK VINA RESULT:      -6.5      2.064      2.269
REMARK SMILES O=C(O)CCc1ccccc1
REMARK SMILES IDX 4 1 2 2 1 3 3 4 5 6 6 7 7 8 11 9 8 10 10 11 9 12
REMARK H PARENT 3 5
REMARK Flexibility Score: inf
ROOT
ATOM      1  C   UNL     1       8.534   0.688  -1.645  1.00  0.00     0.127 C 
ENDROOT
BRANCH   1   2
ATOM      2  C   UNL     1       9.686   0.285  -0.819  1.00  0.00     0.303 C 
ATOM      3  O   UNL     1       9.501  -0.509   0.144  1.00  0.00    -0.252 OA
BRANCH   2   4
ATOM      4  O   UNL     1      10.985   0.752  -1.067  1.00  0.00    -0.481 OA
ATOM      5  H   UNL     1      11.708   0.079  -1.283  1.00  0.00     0.296 HD
ENDBRANCH   2   4
ENDBRANCH   1   2
BRANCH   1   6
ATOM      6  C   UNL     1       7.339  -0.227  -1.449  1.00  0.00     0.047 C 
BRANCH   6   7
ATOM      7  C   UNL     1       6.443   0.289  -0.381  1.00  0.00    -0.047 A 
ATOM      8  C   UNL     1       5.801   1.510  -0.525  1.00  0.00     0.004 A 
ATOM      9  C   UNL     1       6.210  -0.398   0.797  1.00  0.00     0.004 A 
ATOM     10  C   UNL     1       4.974   2.020   0.450  1.00  0.00     0.000 A 
ATOM     11  C   UNL     1       5.381   0.114   1.772  1.00  0.00     0.000 A 
ATOM     12  C   UNL     1       4.749   1.327   1.623  1.00  0.00     0.000 A 
ENDBRANCH   6   7
ENDBRANCH   1   6
TORSDOF 4
ENDMDL
