@<TRIPOS>MOLECULE
/home/cewinharhar/GITHUB/reincatalyze/data/processed/docking_pred/2023-Apr-25-2248_maxeplen10_maxtrainstep1000_exh16_gamma099_lrac3e-4_lrcr1e-3/bf1bd72bf83e0bbc7f208f1f88a3802cf16c22f1_ligand_2.pdbqt
 12 12 0 0 0
SMALL
GASTEIGER

@<TRIPOS>ATOM
      1  C          8.4110   -0.6550   -2.1330 C.3     1  UNL1        0.1270
      2  C          8.3940   -1.9160   -2.8950 C.2     1  UNL1        0.3030
      3  O          7.2850   -2.4030   -3.2480 O.2     1  UNL1       -0.2520
      4  O          9.5700   -2.5950   -3.2430 O.3     1  UNL1       -0.4810
      5  H          9.4960   -3.5410   -3.5940 H       1  UNL1        0.2960
      6  C          7.0580    0.0330   -2.1300 C.3     1  UNL1        0.0470
      7  C          6.4930    0.0930   -0.7570 C.2     1  UNL1       -0.0470
      8  C          5.8110    1.2200   -0.3210 C.2     1  UNL1        0.0040
      9  C          6.6190   -0.9430    0.1500 C.2     1  UNL1        0.0040
     10  C          5.2860    1.3100    0.9480 C.2     1  UNL1        0.0000
     11  C          6.0920   -0.8510    1.4200 C.2     1  UNL1        0.0000
     12  C          5.4180    0.2710    1.8460 C.2     1  UNL1        0.0000
@<TRIPOS>BOND
     1     5     4    1
     2     3     2    2
     3     4     2    1
     4     2     1    1
     5     1     6    1
     6     6     7    1
     7     7     8    2
     8     7     9    1
     9     8    10    1
    10     9    11    2
    11    10    12    2
    12    11    12    1
