@<TRIPOS>MOLECULE
/home/cewinharhar/GITHUB/reincatalyze/data/processed/docking_pred/2023-Apr-25-2248_maxeplen10_maxtrainstep1000_exh16_gamma099_lrac3e-4_lrcr1e-3/bfaa3bc067c86e8b5ef89a85d12e30cfe25fe09e_ligand_2.pdbqt
 12 12 0 0 0
SMALL
GASTEIGER

@<TRIPOS>ATOM
      1  C          5.0370    1.7650    0.7330 C.3     1  UNL1        0.1270
      2  C          4.5630    1.0510    1.9310 C.2     1  UNL1        0.3030
      3  O          3.4350    1.3440    2.4120 O.2     1  UNL1       -0.2520
      4  O          5.3230    0.0530    2.5570 O.3     1  UNL1       -0.4810
      5  H          4.8400   -0.6820    3.0570 H       1  UNL1        0.2960
      6  C          6.5460    1.9330    0.7240 C.3     1  UNL1        0.0470
      7  C          7.1670    1.1160   -0.3510 C.2     1  UNL1       -0.0470
      8  C          6.4150    0.1900   -1.0600 C.2     1  UNL1        0.0040
      9  C          8.5020    1.2210   -0.6940 C.2     1  UNL1        0.0040
     10  C          6.9620   -0.5890   -2.0540 C.2     1  UNL1        0.0000
     11  C          9.0490    0.4400   -1.6900 C.2     1  UNL1        0.0000
     12  C          8.2970   -0.4770   -2.3880 C.2     1  UNL1        0.0000
@<TRIPOS>BOND
     1    12    10    2
     2    12    11    1
     3    10     8    1
     4    11     9    2
     5     8     7    2
     6     9     7    1
     7     7     6    1
     8     6     1    1
     9     1     2    1
    10     2     3    2
    11     2     4    1
    12     4     5    1
