MODEL 1
REMARK VINA RESULT:      -7.3      0.000      0.000
REMARK SMILES O=C(O)CCc1ccccc1
REMARK SMILES IDX 4 1 2 2 1 3 3 4 5 6 6 7 7 8 11 9 8 10 10 11 9 12
REMARK H PARENT 3 5
REMARK Flexibility Score: inf
ROOT
ATOM      1  C   UNL     1       8.406  -0.608  -2.199  1.00  0.00     0.127 C 
ENDROOT
BRANCH   1   2
ATOM      2  C   UNL     1       8.435  -1.895  -2.915  1.00  0.00     0.303 C 
ATOM      3  O   UNL     1       9.539  -2.485  -3.070  1.00  0.00    -0.252 OA
BRANCH   2   4
ATOM      4  O   UNL     1       7.275  -2.490  -3.431  1.00  0.00    -0.481 OA
ATOM      5  H   UNL     1       7.275  -3.489  -3.592  1.00  0.00     0.296 HD
ENDBRANCH   2   4
ENDBRANCH   1   2
BRANCH   1   6
ATOM      6  C   UNL     1       7.019   0.011  -2.188  1.00  0.00     0.047 C 
BRANCH   6   7
ATOM      7  C   UNL     1       6.494   0.116  -0.802  1.00  0.00    -0.047 A 
ATOM      8  C   UNL     1       6.599  -0.952   0.078  1.00  0.00     0.004 A 
ATOM      9  C   UNL     1       5.874   1.255  -0.320  1.00  0.00     0.004 A 
ATOM     10  C   UNL     1       6.113  -0.890   1.364  1.00  0.00     0.000 A 
ATOM     11  C   UNL     1       5.388   1.315   0.968  1.00  0.00     0.000 A 
ATOM     12  C   UNL     1       5.495   0.251   1.834  1.00  0.00     0.000 A 
ENDBRANCH   6   7
ENDBRANCH   1   6
TORSDOF 4
ENDMDL
MODEL 2
REMARK VINA RESULT:      -7.3      0.155      1.725
REMARK SMILES O=C(O)CCc1ccccc1
REMARK SMILES IDX 4 1 2 2 1 3 3 4 5 6 6 7 7 8 11 9 8 10 10 11 9 12
REMARK H PARENT 3 5
REMARK Flexibility Score: inf
ROOT
ATOM      1  C   UNL     1       8.400  -0.717  -2.046  1.00  0.00     0.127 C 
ENDROOT
BRANCH   1   2
ATOM      2  C   UNL     1       8.391  -1.940  -2.867  1.00  0.00     0.303 C 
ATOM      3  O   UNL     1       7.286  -2.409  -3.253  1.00  0.00    -0.252 OA
BRANCH   2   4
ATOM      4  O   UNL     1       9.571  -2.602  -3.237  1.00  0.00    -0.481 OA
ATOM      5  H   UNL     1      10.364  -2.560  -2.612  1.00  0.00     0.296 HD
ENDBRANCH   2   4
ENDBRANCH   1   2
BRANCH   1   6
ATOM      6  C   UNL     1       7.067   0.009  -2.081  1.00  0.00     0.047 C 
BRANCH   6   7
ATOM      7  C   UNL     1       6.477   0.104  -0.720  1.00  0.00    -0.047 A 
ATOM      8  C   UNL     1       5.778   1.237  -0.329  1.00  0.00     0.004 A 
ATOM      9  C   UNL     1       6.594  -0.904   0.219  1.00  0.00     0.004 A 
ATOM     10  C   UNL     1       5.229   1.361   0.926  1.00  0.00     0.000 A 
ATOM     11  C   UNL     1       6.043  -0.780   1.477  1.00  0.00     0.000 A 
ATOM     12  C   UNL     1       5.353   0.349   1.857  1.00  0.00     0.000 A 
ENDBRANCH   6   7
ENDBRANCH   1   6
TORSDOF 4
ENDMDL
MODEL 3
REMARK VINA RESULT:      -6.8      3.388      5.082
REMARK SMILES O=C(O)CCc1ccccc1
REMARK SMILES IDX 4 1 2 2 1 3 3 4 5 6 6 7 7 8 11 9 8 10 10 11 9 12
REMARK H PARENT 3 5
REMARK Flexibility Score: inf
ROOT
ATOM      1  C   UNL     1       5.010   1.778   0.724  1.00  0.00     0.127 C 
ENDROOT
BRANCH   1   2
ATOM      2  C   UNL     1       4.475   1.110   1.924  1.00  0.00     0.303 C 
ATOM      3  O   UNL     1       5.155   0.201   2.474  1.00  0.00    -0.252 OA
BRANCH   2   4
ATOM      4  O   UNL     1       3.233   1.451   2.479  1.00  0.00    -0.481 OA
ATOM      5  H   UNL     1       2.834   0.843   3.181  1.00  0.00     0.296 HD
ENDBRANCH   2   4
ENDBRANCH   1   2
BRANCH   1   6
ATOM      6  C   UNL     1       6.525   1.875   0.749  1.00  0.00     0.047 C 
BRANCH   6   7
ATOM      7  C   UNL     1       7.129   1.059  -0.336  1.00  0.00    -0.047 A 
ATOM      8  C   UNL     1       8.470   1.200  -0.666  1.00  0.00     0.004 A 
ATOM      9  C   UNL     1       6.405   0.139  -1.072  1.00  0.00     0.004 A 
ATOM     10  C   UNL     1       9.056   0.467  -1.672  1.00  0.00     0.000 A 
ATOM     11  C   UNL     1       6.994  -0.595  -2.080  1.00  0.00     0.000 A 
ATOM     12  C   UNL     1       8.324  -0.449  -2.401  1.00  0.00     0.000 A 
ENDBRANCH   6   7
ENDBRANCH   1   6
TORSDOF 4
ENDMDL
MODEL 4
REMARK VINA RESULT:      -6.6      3.339      5.086
REMARK SMILES O=C(O)CCc1ccccc1
REMARK SMILES IDX 4 1 2 2 1 3 3 4 5 6 6 7 7 8 11 9 8 10 10 11 9 12
REMARK H PARENT 3 5
REMARK Flexibility Score: inf
ROOT
ATOM      1  C   UNL     1       5.037   1.765   0.733  1.00  0.00     0.127 C 
ENDROOT
BRANCH   1   2
ATOM      2  C   UNL     1       4.563   1.051   1.931  1.00  0.00     0.303 C 
ATOM      3  O   UNL     1       3.435   1.344   2.412  1.00  0.00    -0.252 OA
BRANCH   2   4
ATOM      4  O   UNL     1       5.323   0.053   2.557  1.00  0.00    -0.481 OA
ATOM      5  H   UNL     1       4.840  -0.682   3.057  1.00  0.00     0.296 HD
ENDBRANCH   2   4
ENDBRANCH   1   2
BRANCH   1   6
ATOM      6  C   UNL     1       6.546   1.933   0.724  1.00  0.00     0.047 C 
BRANCH   6   7
ATOM      7  C   UNL     1       7.167   1.116  -0.351  1.00  0.00    -0.047 A 
ATOM      8  C   UNL     1       6.415   0.190  -1.060  1.00  0.00     0.004 A 
ATOM      9  C   UNL     1       8.502   1.221  -0.694  1.00  0.00     0.004 A 
ATOM     10  C   UNL     1       6.962  -0.589  -2.054  1.00  0.00     0.000 A 
ATOM     11  C   UNL     1       9.049   0.440  -1.690  1.00  0.00     0.000 A 
ATOM     12  C   UNL     1       8.297  -0.477  -2.388  1.00  0.00     0.000 A 
ENDBRANCH   6   7
ENDBRANCH   1   6
TORSDOF 4
ENDMDL
MODEL 5
REMARK VINA RESULT:      -6.6      1.878      2.909
REMARK SMILES O=C(O)CCc1ccccc1
REMARK SMILES IDX 4 1 2 2 1 3 3 4 5 6 6 7 7 8 11 9 8 10 10 11 9 12
REMARK H PARENT 3 5
REMARK Flexibility Score: inf
ROOT
ATOM      1  C   UNL     1       8.216  -1.630   1.089  1.00  0.00     0.127 C 
ENDROOT
BRANCH   1   2
ATOM      2  C   UNL     1       8.512  -2.831   0.288  1.00  0.00     0.303 C 
ATOM      3  O   UNL     1       9.160  -3.775   0.815  1.00  0.00    -0.252 OA
BRANCH   2   4
ATOM      4  O   UNL     1       8.095  -2.961  -1.045  1.00  0.00    -0.481 OA
ATOM      5  H   UNL     1       7.596  -2.193  -1.473  1.00  0.00     0.296 HD
ENDBRANCH   2   4
ENDBRANCH   1   2
BRANCH   1   6
ATOM      6  C   UNL     1       6.733  -1.485   1.380  1.00  0.00     0.047 C 
BRANCH   6   7
ATOM      7  C   UNL     1       6.199  -0.221   0.808  1.00  0.00    -0.047 A 
ATOM      8  C   UNL     1       5.416   0.628   1.577  1.00  0.00     0.004 A 
ATOM      9  C   UNL     1       6.438   0.170  -0.496  1.00  0.00     0.004 A 
ATOM     10  C   UNL     1       4.898   1.800   1.074  1.00  0.00     0.000 A 
ATOM     11  C   UNL     1       5.919   1.344  -0.998  1.00  0.00     0.000 A 
ATOM     12  C   UNL     1       5.142   2.180  -0.230  1.00  0.00     0.000 A 
ENDBRANCH   6   7
ENDBRANCH   1   6
TORSDOF 4
ENDMDL
