@<TRIPOS>MOLECULE
/home/cewinharhar/GITHUB/reincatalyze/data/processed/docking_pred/2023-Apr-25-2248_maxeplen10_maxtrainstep1000_exh16_gamma099_lrac3e-4_lrcr1e-3/bfaa3bc067c86e8b5ef89a85d12e30cfe25fe09e_ligand_2.pdbqt
 12 12 0 0 0
SMALL
GASTEIGER

@<TRIPOS>ATOM
      1  C          8.4000   -0.7170   -2.0460 C.3     1  UNL1        0.1270
      2  C          8.3910   -1.9400   -2.8670 C.2     1  UNL1        0.3030
      3  O          7.2860   -2.4090   -3.2530 O.2     1  UNL1       -0.2520
      4  O          9.5710   -2.6020   -3.2370 O.3     1  UNL1       -0.4810
      5  H         10.3640   -2.5600   -2.6120 H       1  UNL1        0.2960
      6  C          7.0670    0.0090   -2.0810 C.3     1  UNL1        0.0470
      7  C          6.4770    0.1040   -0.7200 C.2     1  UNL1       -0.0470
      8  C          5.7780    1.2370   -0.3290 C.2     1  UNL1        0.0040
      9  C          6.5940   -0.9040    0.2190 C.2     1  UNL1        0.0040
     10  C          5.2290    1.3610    0.9260 C.2     1  UNL1        0.0000
     11  C          6.0430   -0.7800    1.4770 C.2     1  UNL1        0.0000
     12  C          5.3530    0.3490    1.8570 C.2     1  UNL1        0.0000
@<TRIPOS>BOND
     1     3     2    2
     2     4     2    1
     3     4     5    1
     4     2     1    1
     5     6     1    1
     6     6     7    1
     7     7     8    2
     8     7     9    1
     9     8    10    1
    10     9    11    2
    11    10    12    2
    12    11    12    1
