@<TRIPOS>MOLECULE
/home/cewinharhar/GITHUB/reincatalyze/data/processed/docking_pred/2023-Apr-25-2248_maxeplen10_maxtrainstep1000_exh16_gamma099_lrac3e-4_lrcr1e-3/bfaa3bc067c86e8b5ef89a85d12e30cfe25fe09e_ligand_2.pdbqt
 12 12 0 0 0
SMALL
GASTEIGER

@<TRIPOS>ATOM
      1  C          8.2160   -1.6300    1.0890 C.3     1  UNL1        0.1270
      2  C          8.5120   -2.8310    0.2880 C.2     1  UNL1        0.3030
      3  O          9.1600   -3.7750    0.8150 O.2     1  UNL1       -0.2520
      4  O          8.0950   -2.9610   -1.0450 O.3     1  UNL1       -0.4810
      5  H          7.5960   -2.1930   -1.4730 H       1  UNL1        0.2960
      6  C          6.7330   -1.4850    1.3800 C.3     1  UNL1        0.0470
      7  C          6.1990   -0.2210    0.8080 C.2     1  UNL1       -0.0470
      8  C          5.4160    0.6280    1.5770 C.2     1  UNL1        0.0040
      9  C          6.4380    0.1700   -0.4960 C.2     1  UNL1        0.0040
     10  C          4.8980    1.8000    1.0740 C.2     1  UNL1        0.0000
     11  C          5.9190    1.3440   -0.9980 C.2     1  UNL1        0.0000
     12  C          5.1420    2.1800   -0.2300 C.2     1  UNL1        0.0000
@<TRIPOS>BOND
     1     5     4    1
     2     4     2    1
     3    11     9    1
     4    11    12    2
     5     9     7    2
     6    12    10    1
     7     2     3    2
     8     2     1    1
     9     7     6    1
    10     7     8    1
    11    10     8    2
    12     1     6    1
