@<TRIPOS>MOLECULE
/home/cewinharhar/GITHUB/reincatalyze/data/processed/docking_pred/2023-Apr-25-2248_maxeplen10_maxtrainstep1000_exh16_gamma099_lrac3e-4_lrcr1e-3/bfaa3bc067c86e8b5ef89a85d12e30cfe25fe09e_ligand_2.pdbqt
 12 12 0 0 0
SMALL
GASTEIGER

@<TRIPOS>ATOM
      1  C          5.0100    1.7780    0.7240 C.3     1  UNL1        0.1270
      2  C          4.4750    1.1100    1.9240 C.2     1  UNL1        0.3030
      3  O          5.1550    0.2010    2.4740 O.2     1  UNL1       -0.2520
      4  O          3.2330    1.4510    2.4790 O.3     1  UNL1       -0.4810
      5  H          2.8340    0.8430    3.1810 H       1  UNL1        0.2960
      6  C          6.5250    1.8750    0.7490 C.3     1  UNL1        0.0470
      7  C          7.1290    1.0590   -0.3360 C.2     1  UNL1       -0.0470
      8  C          8.4700    1.2000   -0.6660 C.2     1  UNL1        0.0040
      9  C          6.4050    0.1390   -1.0720 C.2     1  UNL1        0.0040
     10  C          9.0560    0.4670   -1.6720 C.2     1  UNL1        0.0000
     11  C          6.9940   -0.5950   -2.0800 C.2     1  UNL1        0.0000
     12  C          8.3240   -0.4490   -2.4010 C.2     1  UNL1        0.0000
@<TRIPOS>BOND
     1    12    11    2
     2    12    10    1
     3    11     9    1
     4    10     8    2
     5     9     7    2
     6     8     7    1
     7     7     6    1
     8     1     6    1
     9     1     2    1
    10     2     3    2
    11     2     4    1
    12     4     5    1
