@<TRIPOS>MOLECULE
/home/cewinharhar/GITHUB/reincatalyze/data/processed/docking_pred/2023-Apr-25-2248_maxeplen10_maxtrainstep1000_exh16_gamma099_lrac3e-4_lrcr1e-3/bfaa3bc067c86e8b5ef89a85d12e30cfe25fe09e_ligand_2.pdbqt
 12 12 0 0 0
SMALL
GASTEIGER

@<TRIPOS>ATOM
      1  C          8.4060   -0.6080   -2.1990 C.3     1  UNL1        0.1270
      2  C          8.4350   -1.8950   -2.9150 C.2     1  UNL1        0.3030
      3  O          9.5390   -2.4850   -3.0700 O.2     1  UNL1       -0.2520
      4  O          7.2750   -2.4900   -3.4310 O.3     1  UNL1       -0.4810
      5  H          7.2750   -3.4890   -3.5920 H       1  UNL1        0.2960
      6  C          7.0190    0.0110   -2.1880 C.3     1  UNL1        0.0470
      7  C          6.4940    0.1160   -0.8020 C.2     1  UNL1       -0.0470
      8  C          6.5990   -0.9520    0.0780 C.2     1  UNL1        0.0040
      9  C          5.8740    1.2550   -0.3200 C.2     1  UNL1        0.0040
     10  C          6.1130   -0.8900    1.3640 C.2     1  UNL1        0.0000
     11  C          5.3880    1.3150    0.9680 C.2     1  UNL1        0.0000
     12  C          5.4950    0.2510    1.8340 C.2     1  UNL1        0.0000
@<TRIPOS>BOND
     1     5     4    1
     2     4     2    1
     3     3     2    2
     4     2     1    1
     5     1     6    1
     6     6     7    1
     7     7     9    2
     8     7     8    1
     9     9    11    1
    10     8    10    2
    11    11    12    2
    12    10    12    1
