MODEL 1
REMARK VINA RESULT:      -7.3      0.000      0.000
REMARK SMILES O=C(O)CCc1ccccc1
REMARK SMILES IDX 4 1 2 2 1 3 3 4 5 6 6 7 7 8 11 9 8 10 10 11 9 12
REMARK H PARENT 3 5
REMARK Flexibility Score: inf
ROOT
ATOM      1  C   UNL     1       8.427  -0.733  -2.063  1.00  0.00     0.127 C 
ENDROOT
BRANCH   1   2
ATOM      2  C   UNL     1       8.439  -1.951  -2.893  1.00  0.00     0.303 C 
ATOM      3  O   UNL     1       9.536  -2.533  -3.109  1.00  0.00    -0.252 OA
BRANCH   2   4
ATOM      4  O   UNL     1       7.269  -2.488  -3.449  1.00  0.00    -0.481 OA
ATOM      5  H   UNL     1       7.066  -3.466  -3.296  1.00  0.00     0.296 HD
ENDBRANCH   2   4
ENDBRANCH   1   2
BRANCH   1   6
ATOM      6  C   UNL     1       7.095  -0.007  -2.129  1.00  0.00     0.047 C 
BRANCH   6   7
ATOM      7  C   UNL     1       6.502   0.141  -0.774  1.00  0.00    -0.047 A 
ATOM      8  C   UNL     1       6.619  -0.875   0.164  1.00  0.00     0.004 A 
ATOM      9  C   UNL     1       5.806   1.269  -0.381  1.00  0.00     0.004 A 
ATOM     10  C   UNL     1       6.072  -0.773   1.423  1.00  0.00     0.000 A 
ATOM     11  C   UNL     1       5.258   1.369   0.880  1.00  0.00     0.000 A 
ATOM     12  C   UNL     1       5.378   0.357   1.805  1.00  0.00     0.000 A 
ENDBRANCH   6   7
ENDBRANCH   1   6
TORSDOF 4
ENDMDL
MODEL 2
REMARK VINA RESULT:      -7.3      0.097      1.724
REMARK SMILES O=C(O)CCc1ccccc1
REMARK SMILES IDX 4 1 2 2 1 3 3 4 5 6 6 7 7 8 11 9 8 10 10 11 9 12
REMARK H PARENT 3 5
REMARK Flexibility Score: inf
ROOT
ATOM      1  C   UNL     1       8.410  -0.665  -2.122  1.00  0.00     0.127 C 
ENDROOT
BRANCH   1   2
ATOM      2  C   UNL     1       8.392  -1.920  -2.893  1.00  0.00     0.303 C 
ATOM      3  O   UNL     1       7.284  -2.400  -3.256  1.00  0.00    -0.252 OA
BRANCH   2   4
ATOM      4  O   UNL     1       9.568  -2.602  -3.241  1.00  0.00    -0.481 OA
ATOM      5  H   UNL     1      10.031  -2.357  -4.105  1.00  0.00     0.296 HD
ENDBRANCH   2   4
ENDBRANCH   1   2
BRANCH   1   6
ATOM      6  C   UNL     1       7.063   0.034  -2.131  1.00  0.00     0.047 C 
BRANCH   6   7
ATOM      7  C   UNL     1       6.487   0.100  -0.763  1.00  0.00    -0.047 A 
ATOM      8  C   UNL     1       5.787   1.222  -0.343  1.00  0.00     0.004 A 
ATOM      9  C   UNL     1       6.620  -0.925   0.156  1.00  0.00     0.004 A 
ATOM     10  C   UNL     1       5.252   1.318   0.921  1.00  0.00     0.000 A 
ATOM     11  C   UNL     1       6.083  -0.828   1.421  1.00  0.00     0.000 A 
ATOM     12  C   UNL     1       5.391   0.290   1.831  1.00  0.00     0.000 A 
ENDBRANCH   6   7
ENDBRANCH   1   6
TORSDOF 4
ENDMDL
MODEL 3
REMARK VINA RESULT:      -7.1      0.587      1.607
REMARK SMILES O=C(O)CCc1ccccc1
REMARK SMILES IDX 4 1 2 2 1 3 3 4 5 6 6 7 7 8 11 9 8 10 10 11 9 12
REMARK H PARENT 3 5
REMARK Flexibility Score: inf
ROOT
ATOM      1  C   UNL     1       8.246  -0.934  -1.881  1.00  0.00     0.127 C 
ENDROOT
BRANCH   1   2
ATOM      2  C   UNL     1       8.365  -2.052  -2.834  1.00  0.00     0.303 C 
ATOM      3  O   UNL     1       9.496  -2.578  -3.023  1.00  0.00    -0.252 OA
BRANCH   2   4
ATOM      4  O   UNL     1       7.262  -2.553  -3.541  1.00  0.00    -0.481 OA
ATOM      5  H   UNL     1       7.314  -3.491  -3.915  1.00  0.00     0.296 HD
ENDBRANCH   2   4
ENDBRANCH   1   2
BRANCH   1   6
ATOM      6  C   UNL     1       7.653  -1.373  -0.554  1.00  0.00     0.047 C 
BRANCH   6   7
ATOM      7  C   UNL     1       6.713  -0.350  -0.027  1.00  0.00    -0.047 A 
ATOM      8  C   UNL     1       6.339   0.736  -0.805  1.00  0.00     0.004 A 
ATOM      9  C   UNL     1       6.175  -0.413   1.246  1.00  0.00     0.004 A 
ATOM     10  C   UNL     1       5.479   1.705  -0.342  1.00  0.00     0.000 A 
ATOM     11  C   UNL     1       5.313   0.558   1.708  1.00  0.00     0.000 A 
ATOM     12  C   UNL     1       4.948   1.633   0.930  1.00  0.00     0.000 A 
ENDBRANCH   6   7
ENDBRANCH   1   6
TORSDOF 4
ENDMDL
MODEL 4
REMARK VINA RESULT:      -6.8      3.395      5.100
REMARK SMILES O=C(O)CCc1ccccc1
REMARK SMILES IDX 4 1 2 2 1 3 3 4 5 6 6 7 7 8 11 9 8 10 10 11 9 12
REMARK H PARENT 3 5
REMARK Flexibility Score: inf
ROOT
ATOM      1  C   UNL     1       4.994   1.777   0.723  1.00  0.00     0.127 C 
ENDROOT
BRANCH   1   2
ATOM      2  C   UNL     1       4.469   1.113   1.929  1.00  0.00     0.303 C 
ATOM      3  O   UNL     1       5.158   0.212   2.481  1.00  0.00    -0.252 OA
BRANCH   2   4
ATOM      4  O   UNL     1       3.227   1.448   2.487  1.00  0.00    -0.481 OA
ATOM      5  H   UNL     1       2.387   1.209   1.977  1.00  0.00     0.296 HD
ENDBRANCH   2   4
ENDBRANCH   1   2
BRANCH   1   6
ATOM      6  C   UNL     1       6.507   1.897   0.747  1.00  0.00     0.047 C 
BRANCH   6   7
ATOM      7  C   UNL     1       7.122   1.087  -0.337  1.00  0.00    -0.047 A 
ATOM      8  C   UNL     1       8.469   1.218  -0.642  1.00  0.00     0.004 A 
ATOM      9  C   UNL     1       6.402   0.182  -1.096  1.00  0.00     0.004 A 
ATOM     10  C   UNL     1       9.066   0.491  -1.646  1.00  0.00     0.000 A 
ATOM     11  C   UNL     1       7.001  -0.546  -2.101  1.00  0.00     0.000 A 
ATOM     12  C   UNL     1       8.338  -0.409  -2.398  1.00  0.00     0.000 A 
ENDBRANCH   6   7
ENDBRANCH   1   6
TORSDOF 4
ENDMDL
MODEL 5
REMARK VINA RESULT:      -6.6      1.950      2.668
REMARK SMILES O=C(O)CCc1ccccc1
REMARK SMILES IDX 4 1 2 2 1 3 3 4 5 6 6 7 7 8 11 9 8 10 10 11 9 12
REMARK H PARENT 3 5
REMARK Flexibility Score: inf
ROOT
ATOM      1  C   UNL     1       8.283   0.115  -2.199  1.00  0.00     0.127 C 
ENDROOT
BRANCH   1   2
ATOM      2  C   UNL     1       9.389   0.335  -1.251  1.00  0.00     0.303 C 
ATOM      3  O   UNL     1       9.469  -0.392  -0.223  1.00  0.00    -0.252 OA
BRANCH   2   4
ATOM      4  O   UNL     1      10.360   1.326  -1.452  1.00  0.00    -0.481 OA
ATOM      5  H   UNL     1      11.291   1.043  -1.727  1.00  0.00     0.296 HD
ENDBRANCH   2   4
ENDBRANCH   1   2
BRANCH   1   6
ATOM      6  C   UNL     1       7.143  -0.672  -1.578  1.00  0.00     0.047 C 
BRANCH   6   7
ATOM      7  C   UNL     1       6.358   0.175  -0.642  1.00  0.00    -0.047 A 
ATOM      8  C   UNL     1       5.832   1.390  -1.059  1.00  0.00     0.004 A 
ATOM      9  C   UNL     1       6.121  -0.183   0.673  1.00  0.00     0.004 A 
ATOM     10  C   UNL     1       5.111   2.202  -0.214  1.00  0.00     0.000 A 
ATOM     11  C   UNL     1       5.399   0.632   1.518  1.00  0.00     0.000 A 
ATOM     12  C   UNL     1       4.881   1.835   1.097  1.00  0.00     0.000 A 
ENDBRANCH   6   7
ENDBRANCH   1   6
TORSDOF 4
ENDMDL
