@<TRIPOS>MOLECULE
/home/cewinharhar/GITHUB/reincatalyze/data/processed/docking_pred/2023-Apr-25-2248_maxeplen10_maxtrainstep1000_exh16_gamma099_lrac3e-4_lrcr1e-3/c00c8b20774af87dd702fd508d588995eeb45aaa_ligand_2.pdbqt
 12 12 0 0 0
SMALL
GASTEIGER

@<TRIPOS>ATOM
      1  C          8.2460   -0.9340   -1.8810 C.3     1  UNL1        0.1270
      2  C          8.3650   -2.0520   -2.8340 C.2     1  UNL1        0.3030
      3  O          9.4960   -2.5780   -3.0230 O.2     1  UNL1       -0.2520
      4  O          7.2620   -2.5530   -3.5410 O.3     1  UNL1       -0.4810
      5  H          7.3140   -3.4910   -3.9150 H       1  UNL1        0.2960
      6  C          7.6530   -1.3730   -0.5540 C.3     1  UNL1        0.0470
      7  C          6.7130   -0.3500   -0.0270 C.2     1  UNL1       -0.0470
      8  C          6.3390    0.7360   -0.8050 C.2     1  UNL1        0.0040
      9  C          6.1750   -0.4130    1.2460 C.2     1  UNL1        0.0040
     10  C          5.4790    1.7050   -0.3420 C.2     1  UNL1        0.0000
     11  C          5.3130    0.5580    1.7080 C.2     1  UNL1        0.0000
     12  C          4.9480    1.6330    0.9300 C.2     1  UNL1        0.0000
@<TRIPOS>BOND
     1     5     4    1
     2     4     2    1
     3     3     2    2
     4     2     1    1
     5     1     6    1
     6     8    10    1
     7     8     7    2
     8     6     7    1
     9    10    12    2
    10     7     9    1
    11    12    11    1
    12     9    11    2
