@<TRIPOS>MOLECULE
/home/cewinharhar/GITHUB/reincatalyze/data/processed/docking_pred/2023-Apr-25-2248_maxeplen10_maxtrainstep1000_exh16_gamma099_lrac3e-4_lrcr1e-3/c00c8b20774af87dd702fd508d588995eeb45aaa_ligand_2.pdbqt
 12 12 0 0 0
SMALL
GASTEIGER

@<TRIPOS>ATOM
      1  C          8.2830    0.1150   -2.1990 C.3     1  UNL1        0.1270
      2  C          9.3890    0.3350   -1.2510 C.2     1  UNL1        0.3030
      3  O          9.4690   -0.3920   -0.2230 O.2     1  UNL1       -0.2520
      4  O         10.3600    1.3260   -1.4520 O.3     1  UNL1       -0.4810
      5  H         11.2910    1.0430   -1.7270 H       1  UNL1        0.2960
      6  C          7.1430   -0.6720   -1.5780 C.3     1  UNL1        0.0470
      7  C          6.3580    0.1750   -0.6420 C.2     1  UNL1       -0.0470
      8  C          5.8320    1.3900   -1.0590 C.2     1  UNL1        0.0040
      9  C          6.1210   -0.1830    0.6730 C.2     1  UNL1        0.0040
     10  C          5.1110    2.2020   -0.2140 C.2     1  UNL1        0.0000
     11  C          5.3990    0.6320    1.5180 C.2     1  UNL1        0.0000
     12  C          4.8810    1.8350    1.0970 C.2     1  UNL1        0.0000
@<TRIPOS>BOND
     1     1     6    1
     2     1     2    1
     3     5     4    1
     4     6     7    1
     5     4     2    1
     6     2     3    2
     7     8     7    2
     8     8    10    1
     9     7     9    1
    10    10    12    2
    11     9    11    2
    12    12    11    1
