@<TRIPOS>MOLECULE
/home/cewinharhar/GITHUB/reincatalyze/data/processed/docking_pred/2023-Apr-25-2248_maxeplen10_maxtrainstep1000_exh16_gamma099_lrac3e-4_lrcr1e-3/c00c8b20774af87dd702fd508d588995eeb45aaa_ligand_2.pdbqt
 12 12 0 0 0
SMALL
GASTEIGER

@<TRIPOS>ATOM
      1  C          4.9940    1.7770    0.7230 C.3     1  UNL1        0.1270
      2  C          4.4690    1.1130    1.9290 C.2     1  UNL1        0.3030
      3  O          5.1580    0.2120    2.4810 O.2     1  UNL1       -0.2520
      4  O          3.2270    1.4480    2.4870 O.3     1  UNL1       -0.4810
      5  H          2.3870    1.2090    1.9770 H       1  UNL1        0.2960
      6  C          6.5070    1.8970    0.7470 C.3     1  UNL1        0.0470
      7  C          7.1220    1.0870   -0.3370 C.2     1  UNL1       -0.0470
      8  C          8.4690    1.2180   -0.6420 C.2     1  UNL1        0.0040
      9  C          6.4020    0.1820   -1.0960 C.2     1  UNL1        0.0040
     10  C          9.0660    0.4910   -1.6460 C.2     1  UNL1        0.0000
     11  C          7.0010   -0.5460   -2.1010 C.2     1  UNL1        0.0000
     12  C          8.3380   -0.4090   -2.3980 C.2     1  UNL1        0.0000
@<TRIPOS>BOND
     1    12    11    2
     2    12    10    1
     3    11     9    1
     4    10     8    2
     5     9     7    2
     6     8     7    1
     7     7     6    1
     8     1     6    1
     9     1     2    1
    10     2     3    2
    11     2     4    1
    12     5     4    1
