@<TRIPOS>MOLECULE
/home/cewinharhar/GITHUB/reincatalyze/data/processed/docking_pred/2023-Apr-25-2248_maxeplen10_maxtrainstep1000_exh16_gamma099_lrac3e-4_lrcr1e-3/c00c8b20774af87dd702fd508d588995eeb45aaa_ligand_2.pdbqt
 12 12 0 0 0
SMALL
GASTEIGER

@<TRIPOS>ATOM
      1  C          8.4270   -0.7330   -2.0630 C.3     1  UNL1        0.1270
      2  C          8.4390   -1.9510   -2.8930 C.2     1  UNL1        0.3030
      3  O          9.5360   -2.5330   -3.1090 O.2     1  UNL1       -0.2520
      4  O          7.2690   -2.4880   -3.4490 O.3     1  UNL1       -0.4810
      5  H          7.0660   -3.4660   -3.2960 H       1  UNL1        0.2960
      6  C          7.0950   -0.0070   -2.1290 C.3     1  UNL1        0.0470
      7  C          6.5020    0.1410   -0.7740 C.2     1  UNL1       -0.0470
      8  C          6.6190   -0.8750    0.1640 C.2     1  UNL1        0.0040
      9  C          5.8060    1.2690   -0.3810 C.2     1  UNL1        0.0040
     10  C          6.0720   -0.7730    1.4230 C.2     1  UNL1        0.0000
     11  C          5.2580    1.3690    0.8800 C.2     1  UNL1        0.0000
     12  C          5.3780    0.3570    1.8050 C.2     1  UNL1        0.0000
@<TRIPOS>BOND
     1     4     5    1
     2     4     2    1
     3     3     2    2
     4     2     1    1
     5     6     1    1
     6     6     7    1
     7     7     9    2
     8     7     8    1
     9     9    11    1
    10     8    10    2
    11    11    12    2
    12    10    12    1
