@<TRIPOS>MOLECULE
/home/cewinharhar/GITHUB/reincatalyze/data/processed/docking_pred/2023-Apr-25-2248_maxeplen10_maxtrainstep1000_exh16_gamma099_lrac3e-4_lrcr1e-3/c054a7f490e8e5c171bc57af56a9ae5cb4d717f8_ligand_2.pdbqt
 12 12 0 0 0
SMALL
GASTEIGER

@<TRIPOS>ATOM
      1  C          5.3460    2.7890    0.1760 C.3     1  UNL1        0.1270
      2  C          6.2800    3.6830    0.8830 C.2     1  UNL1        0.3030
      3  O          6.5390    3.4610    2.0970 O.2     1  UNL1       -0.2520
      4  O          6.8930    4.7750    0.2510 O.3     1  UNL1       -0.4810
      5  H          6.5440    5.0700   -0.6500 H       1  UNL1        0.2960
      6  C          5.2390    1.4290    0.8410 C.3     1  UNL1        0.0470
      7  C          6.0630    0.4200    0.1250 C.2     1  UNL1       -0.0470
      8  C          6.5600   -0.6910    0.7920 C.2     1  UNL1        0.0040
      9  C          6.3850    0.5310   -1.2160 C.2     1  UNL1        0.0040
     10  C          7.3340   -1.6370    0.1600 C.2     1  UNL1        0.0000
     11  C          7.1600   -0.4170   -1.8470 C.2     1  UNL1        0.0000
     12  C          7.6500   -1.5160   -1.1780 C.2     1  UNL1        0.0000
@<TRIPOS>BOND
     1    11     9    1
     2    11    12    2
     3     9     7    2
     4    12    10    1
     5     5     4    1
     6     7     8    1
     7     7     6    1
     8    10     8    2
     9     1     6    1
    10     1     2    1
    11     4     2    1
    12     2     3    2
