@<TRIPOS>MOLECULE
/home/cewinharhar/GITHUB/reincatalyze/data/processed/docking_pred/2023-Apr-25-2248_maxeplen10_maxtrainstep1000_exh16_gamma099_lrac3e-4_lrcr1e-3/c054a7f490e8e5c171bc57af56a9ae5cb4d717f8_ligand_2.pdbqt
 12 12 0 0 0
SMALL
GASTEIGER

@<TRIPOS>ATOM
      1  C          5.0060    1.7690    0.7040 C.3     1  UNL1        0.1270
      2  C          4.4770    1.1150    1.9140 C.2     1  UNL1        0.3030
      3  O          5.1620    0.2160    2.4730 O.2     1  UNL1       -0.2520
      4  O          3.2360    1.4590    2.4690 O.3     1  UNL1       -0.4810
      5  H          2.3960    1.1020    2.0330 H       1  UNL1        0.2960
      6  C          6.5180    1.9050    0.7400 C.3     1  UNL1        0.0470
      7  C          7.1500    1.1020   -0.3390 C.2     1  UNL1       -0.0470
      8  C          6.4070    0.1840   -1.0670 C.2     1  UNL1        0.0040
      9  C          8.4900    1.2110   -0.6660 C.2     1  UNL1        0.0040
     10  C          6.9650   -0.5820   -2.0640 C.2     1  UNL1        0.0000
     11  C          9.0480    0.4430   -1.6650 C.2     1  UNL1        0.0000
     12  C          8.3040   -0.4670   -2.3820 C.2     1  UNL1        0.0000
@<TRIPOS>BOND
     1    12    10    2
     2    12    11    1
     3    10     8    1
     4    11     9    2
     5     8     7    2
     6     9     7    1
     7     7     6    1
     8     1     6    1
     9     1     2    1
    10     2     4    1
    11     2     3    2
    12     5     4    1
