@<TRIPOS>MOLECULE
/home/cewinharhar/GITHUB/reincatalyze/data/processed/docking_pred/2023-Apr-25-2248_maxeplen10_maxtrainstep1000_exh16_gamma099_lrac3e-4_lrcr1e-3/c054a7f490e8e5c171bc57af56a9ae5cb4d717f8_ligand_2.pdbqt
 12 12 0 0 0
SMALL
GASTEIGER

@<TRIPOS>ATOM
      1  C          8.4360   -0.6540   -2.1430 C.3     1  UNL1        0.1270
      2  C          8.4510   -1.9150   -2.9060 C.2     1  UNL1        0.3030
      3  O          9.5510   -2.5020   -3.0970 O.2     1  UNL1       -0.2520
      4  O          7.2820   -2.4890   -3.4260 O.3     1  UNL1       -0.4810
      5  H          6.8680   -3.2700   -2.9360 H       1  UNL1        0.2960
      6  C          7.0730    0.0140   -2.1680 C.3     1  UNL1        0.0470
      7  C          6.5090    0.1240   -0.7970 C.2     1  UNL1       -0.0470
      8  C          6.6210   -0.9280    0.1010 C.2     1  UNL1        0.0040
      9  C          5.8440    1.2510   -0.3490 C.2     1  UNL1        0.0040
     10  C          6.1010   -0.8620    1.3730 C.2     1  UNL1        0.0000
     11  C          5.3240    1.3160    0.9260 C.2     1  UNL1        0.0000
     12  C          5.4380    0.2670    1.8100 C.2     1  UNL1        0.0000
@<TRIPOS>BOND
     1     4     5    1
     2     4     2    1
     3     3     2    2
     4     2     1    1
     5     6     1    1
     6     6     7    1
     7     7     9    2
     8     7     8    1
     9     9    11    1
    10     8    10    2
    11    11    12    2
    12    10    12    1
