@<TRIPOS>MOLECULE
/home/cewinharhar/GITHUB/reincatalyze/data/processed/docking_pred/2023-Apr-25-2248_maxeplen10_maxtrainstep1000_exh16_gamma099_lrac3e-4_lrcr1e-3/c054a7f490e8e5c171bc57af56a9ae5cb4d717f8_ligand_2.pdbqt
 12 12 0 0 0
SMALL
GASTEIGER

@<TRIPOS>ATOM
      1  C          8.5370    0.6550   -1.6330 C.3     1  UNL1        0.1270
      2  C          9.6930    0.2730   -0.8020 C.2     1  UNL1        0.3030
      3  O          9.5160   -0.5100    0.1700 O.2     1  UNL1       -0.2520
      4  O         10.9870    0.7510   -1.0560 O.3     1  UNL1       -0.4810
      5  H         11.5700    1.0090   -0.2720 H       1  UNL1        0.2960
      6  C          7.3490   -0.2670   -1.4210 C.3     1  UNL1        0.0470
      7  C          6.4490    0.2600   -0.3630 C.2     1  UNL1       -0.0470
      8  C          5.8120    1.4830   -0.5190 C.2     1  UNL1        0.0040
      9  C          6.2060   -0.4170    0.8180 C.2     1  UNL1        0.0040
     10  C          4.9810    2.0030    0.4470 C.2     1  UNL1        0.0000
     11  C          5.3730    0.1050    1.7850 C.2     1  UNL1        0.0000
     12  C          4.7460    1.3190    1.6230 C.2     1  UNL1        0.0000
@<TRIPOS>BOND
     1     1     6    1
     2     1     2    1
     3     6     7    1
     4     4     2    1
     5     4     5    1
     6     2     3    2
     7     8     7    2
     8     8    10    1
     9     7     9    1
    10    10    12    2
    11     9    11    2
    12    12    11    1
