MODEL 1
REMARK VINA RESULT:      -7.3      0.000      0.000
REMARK SMILES O=C(O)CCc1ccccc1
REMARK SMILES IDX 4 1 2 2 1 3 3 4 5 6 6 7 7 8 11 9 8 10 10 11 9 12
REMARK H PARENT 3 5
REMARK Flexibility Score: inf
ROOT
ATOM      1  C   UNL     1       8.436  -0.654  -2.143  1.00  0.00     0.127 C 
ENDROOT
BRANCH   1   2
ATOM      2  C   UNL     1       8.451  -1.915  -2.906  1.00  0.00     0.303 C 
ATOM      3  O   UNL     1       9.551  -2.502  -3.097  1.00  0.00    -0.252 OA
BRANCH   2   4
ATOM      4  O   UNL     1       7.282  -2.489  -3.426  1.00  0.00    -0.481 OA
ATOM      5  H   UNL     1       6.868  -3.270  -2.936  1.00  0.00     0.296 HD
ENDBRANCH   2   4
ENDBRANCH   1   2
BRANCH   1   6
ATOM      6  C   UNL     1       7.073   0.014  -2.168  1.00  0.00     0.047 C 
BRANCH   6   7
ATOM      7  C   UNL     1       6.509   0.124  -0.797  1.00  0.00    -0.047 A 
ATOM      8  C   UNL     1       6.621  -0.928   0.101  1.00  0.00     0.004 A 
ATOM      9  C   UNL     1       5.844   1.251  -0.349  1.00  0.00     0.004 A 
ATOM     10  C   UNL     1       6.101  -0.862   1.373  1.00  0.00     0.000 A 
ATOM     11  C   UNL     1       5.324   1.316   0.926  1.00  0.00     0.000 A 
ATOM     12  C   UNL     1       5.438   0.267   1.810  1.00  0.00     0.000 A 
ENDBRANCH   6   7
ENDBRANCH   1   6
TORSDOF 4
ENDMDL
MODEL 2
REMARK VINA RESULT:      -7.3      0.100      1.724
REMARK SMILES O=C(O)CCc1ccccc1
REMARK SMILES IDX 4 1 2 2 1 3 3 4 5 6 6 7 7 8 11 9 8 10 10 11 9 12
REMARK H PARENT 3 5
REMARK Flexibility Score: inf
ROOT
ATOM      1  C   UNL     1       8.408  -0.677  -2.099  1.00  0.00     0.127 C 
ENDROOT
BRANCH   1   2
ATOM      2  C   UNL     1       8.398  -1.924  -2.884  1.00  0.00     0.303 C 
ATOM      3  O   UNL     1       7.293  -2.411  -3.247  1.00  0.00    -0.252 OA
BRANCH   2   4
ATOM      4  O   UNL     1       9.579  -2.589  -3.246  1.00  0.00    -0.481 OA
ATOM      5  H   UNL     1      10.144  -2.200  -3.989  1.00  0.00     0.296 HD
ENDBRANCH   2   4
ENDBRANCH   1   2
BRANCH   1   6
ATOM      6  C   UNL     1       7.060   0.022  -2.115  1.00  0.00     0.047 C 
BRANCH   6   7
ATOM      7  C   UNL     1       6.484   0.099  -0.747  1.00  0.00    -0.047 A 
ATOM      8  C   UNL     1       5.795   1.229  -0.332  1.00  0.00     0.004 A 
ATOM      9  C   UNL     1       6.606  -0.924   0.176  1.00  0.00     0.004 A 
ATOM     10  C   UNL     1       5.259   1.335   0.931  1.00  0.00     0.000 A 
ATOM     11  C   UNL     1       6.069  -0.816   1.440  1.00  0.00     0.000 A 
ATOM     12  C   UNL     1       5.388   0.309   1.845  1.00  0.00     0.000 A 
ENDBRANCH   6   7
ENDBRANCH   1   6
TORSDOF 4
ENDMDL
MODEL 3
REMARK VINA RESULT:      -6.8      3.387      5.066
REMARK SMILES O=C(O)CCc1ccccc1
REMARK SMILES IDX 4 1 2 2 1 3 3 4 5 6 6 7 7 8 11 9 8 10 10 11 9 12
REMARK H PARENT 3 5
REMARK Flexibility Score: inf
ROOT
ATOM      1  C   UNL     1       5.006   1.769   0.704  1.00  0.00     0.127 C 
ENDROOT
BRANCH   1   2
ATOM      2  C   UNL     1       4.477   1.115   1.914  1.00  0.00     0.303 C 
ATOM      3  O   UNL     1       5.162   0.216   2.473  1.00  0.00    -0.252 OA
BRANCH   2   4
ATOM      4  O   UNL     1       3.236   1.459   2.469  1.00  0.00    -0.481 OA
ATOM      5  H   UNL     1       2.396   1.102   2.033  1.00  0.00     0.296 HD
ENDBRANCH   2   4
ENDBRANCH   1   2
BRANCH   1   6
ATOM      6  C   UNL     1       6.518   1.905   0.740  1.00  0.00     0.047 C 
BRANCH   6   7
ATOM      7  C   UNL     1       7.150   1.102  -0.339  1.00  0.00    -0.047 A 
ATOM      8  C   UNL     1       6.407   0.184  -1.067  1.00  0.00     0.004 A 
ATOM      9  C   UNL     1       8.490   1.211  -0.666  1.00  0.00     0.004 A 
ATOM     10  C   UNL     1       6.965  -0.582  -2.064  1.00  0.00     0.000 A 
ATOM     11  C   UNL     1       9.048   0.443  -1.665  1.00  0.00     0.000 A 
ATOM     12  C   UNL     1       8.304  -0.467  -2.382  1.00  0.00     0.000 A 
ENDBRANCH   6   7
ENDBRANCH   1   6
TORSDOF 4
ENDMDL
MODEL 4
REMARK VINA RESULT:      -6.5      2.084      2.754
REMARK SMILES O=C(O)CCc1ccccc1
REMARK SMILES IDX 4 1 2 2 1 3 3 4 5 6 6 7 7 8 11 9 8 10 10 11 9 12
REMARK H PARENT 3 5
REMARK Flexibility Score: inf
ROOT
ATOM      1  C   UNL     1       8.537   0.655  -1.633  1.00  0.00     0.127 C 
ENDROOT
BRANCH   1   2
ATOM      2  C   UNL     1       9.693   0.273  -0.802  1.00  0.00     0.303 C 
ATOM      3  O   UNL     1       9.516  -0.510   0.170  1.00  0.00    -0.252 OA
BRANCH   2   4
ATOM      4  O   UNL     1      10.987   0.751  -1.056  1.00  0.00    -0.481 OA
ATOM      5  H   UNL     1      11.570   1.009  -0.272  1.00  0.00     0.296 HD
ENDBRANCH   2   4
ENDBRANCH   1   2
BRANCH   1   6
ATOM      6  C   UNL     1       7.349  -0.267  -1.421  1.00  0.00     0.047 C 
BRANCH   6   7
ATOM      7  C   UNL     1       6.449   0.260  -0.363  1.00  0.00    -0.047 A 
ATOM      8  C   UNL     1       5.812   1.483  -0.519  1.00  0.00     0.004 A 
ATOM      9  C   UNL     1       6.206  -0.417   0.818  1.00  0.00     0.004 A 
ATOM     10  C   UNL     1       4.981   2.003   0.447  1.00  0.00     0.000 A 
ATOM     11  C   UNL     1       5.373   0.105   1.785  1.00  0.00     0.000 A 
ATOM     12  C   UNL     1       4.746   1.319   1.623  1.00  0.00     0.000 A 
ENDBRANCH   6   7
ENDBRANCH   1   6
TORSDOF 4
ENDMDL
MODEL 5
REMARK VINA RESULT:      -6.5      3.672      4.932
REMARK SMILES O=C(O)CCc1ccccc1
REMARK SMILES IDX 4 1 2 2 1 3 3 4 5 6 6 7 7 8 11 9 8 10 10 11 9 12
REMARK H PARENT 3 5
REMARK Flexibility Score: inf
ROOT
ATOM      1  C   UNL     1       5.346   2.789   0.176  1.00  0.00     0.127 C 
ENDROOT
BRANCH   1   2
ATOM      2  C   UNL     1       6.280   3.683   0.883  1.00  0.00     0.303 C 
ATOM      3  O   UNL     1       6.539   3.461   2.097  1.00  0.00    -0.252 OA
BRANCH   2   4
ATOM      4  O   UNL     1       6.893   4.775   0.251  1.00  0.00    -0.481 OA
ATOM      5  H   UNL     1       6.544   5.070  -0.650  1.00  0.00     0.296 HD
ENDBRANCH   2   4
ENDBRANCH   1   2
BRANCH   1   6
ATOM      6  C   UNL     1       5.239   1.429   0.841  1.00  0.00     0.047 C 
BRANCH   6   7
ATOM      7  C   UNL     1       6.063   0.420   0.125  1.00  0.00    -0.047 A 
ATOM      8  C   UNL     1       6.560  -0.691   0.792  1.00  0.00     0.004 A 
ATOM      9  C   UNL     1       6.385   0.531  -1.216  1.00  0.00     0.004 A 
ATOM     10  C   UNL     1       7.334  -1.637   0.160  1.00  0.00     0.000 A 
ATOM     11  C   UNL     1       7.160  -0.417  -1.847  1.00  0.00     0.000 A 
ATOM     12  C   UNL     1       7.650  -1.516  -1.178  1.00  0.00     0.000 A 
ENDBRANCH   6   7
ENDBRANCH   1   6
TORSDOF 4
ENDMDL
