@<TRIPOS>MOLECULE
/home/cewinharhar/GITHUB/reincatalyze/data/processed/docking_pred/2023-Apr-25-2248_maxeplen10_maxtrainstep1000_exh16_gamma099_lrac3e-4_lrcr1e-3/c2b16f598521213e119e3a09a49f7e8c9c89cc3b_ligand_2.pdbqt
 12 12 0 0 0
SMALL
GASTEIGER

@<TRIPOS>ATOM
      1  C          5.0130    1.7400    0.7070 C.3     1  UNL1        0.1270
      2  C          4.4760    1.0950    1.9180 C.2     1  UNL1        0.3030
      3  O          5.1510    0.1890    2.4790 O.2     1  UNL1       -0.2520
      4  O          3.2400    1.4560    2.4720 O.3     1  UNL1       -0.4810
      5  H          2.8630    0.8930    3.2230 H       1  UNL1        0.2960
      6  C          6.5240    1.8750    0.7500 C.3     1  UNL1        0.0470
      7  C          7.1610    1.0840   -0.3360 C.2     1  UNL1       -0.0470
      8  C          6.4250    0.1590   -1.0620 C.2     1  UNL1        0.0040
      9  C          8.4960    1.2140   -0.6720 C.2     1  UNL1        0.0040
     10  C          6.9880   -0.5960   -2.0660 C.2     1  UNL1        0.0000
     11  C          9.0580    0.4570   -1.6770 C.2     1  UNL1        0.0000
     12  C          8.3220   -0.4600   -2.3930 C.2     1  UNL1        0.0000
@<TRIPOS>BOND
     1    12    10    2
     2    12    11    1
     3    10     8    1
     4    11     9    2
     5     8     7    2
     6     9     7    1
     7     7     6    1
     8     1     6    1
     9     1     2    1
    10     2     4    1
    11     2     3    2
    12     4     5    1
