MODEL 1
REMARK VINA RESULT:      -7.3      0.000      0.000
REMARK SMILES O=C(O)CCc1ccccc1
REMARK SMILES IDX 4 1 2 2 1 3 3 4 5 6 6 7 7 8 11 9 8 10 10 11 9 12
REMARK H PARENT 3 5
REMARK Flexibility Score: inf
ROOT
ATOM      1  C   UNL     1       8.391  -0.722  -2.033  1.00  0.00     0.127 C 
ENDROOT
BRANCH   1   2
ATOM      2  C   UNL     1       8.390  -1.937  -2.868  1.00  0.00     0.303 C 
ATOM      3  O   UNL     1       7.288  -2.415  -3.251  1.00  0.00    -0.252 OA
BRANCH   2   4
ATOM      4  O   UNL     1       9.574  -2.580  -3.254  1.00  0.00    -0.481 OA
ATOM      5  H   UNL     1      10.448  -2.080  -3.162  1.00  0.00     0.296 HD
ENDBRANCH   2   4
ENDBRANCH   1   2
BRANCH   1   6
ATOM      6  C   UNL     1       7.063   0.012  -2.085  1.00  0.00     0.047 C 
BRANCH   6   7
ATOM      7  C   UNL     1       6.474   0.143  -0.727  1.00  0.00    -0.047 A 
ATOM      8  C   UNL     1       6.594  -0.883   0.199  1.00  0.00     0.004 A 
ATOM      9  C   UNL     1       5.777   1.266  -0.319  1.00  0.00     0.004 A 
ATOM     10  C   UNL     1       6.050  -0.796   1.460  1.00  0.00     0.000 A 
ATOM     11  C   UNL     1       5.234   1.352   0.944  1.00  0.00     0.000 A 
ATOM     12  C   UNL     1       5.356   0.329   1.857  1.00  0.00     0.000 A 
ENDBRANCH   6   7
ENDBRANCH   1   6
TORSDOF 4
ENDMDL
MODEL 2
REMARK VINA RESULT:      -7.3      0.189      1.729
REMARK SMILES O=C(O)CCc1ccccc1
REMARK SMILES IDX 4 1 2 2 1 3 3 4 5 6 6 7 7 8 11 9 8 10 10 11 9 12
REMARK H PARENT 3 5
REMARK Flexibility Score: inf
ROOT
ATOM      1  C   UNL     1       8.399  -0.581  -2.243  1.00  0.00     0.127 C 
ENDROOT
BRANCH   1   2
ATOM      2  C   UNL     1       8.445  -1.888  -2.922  1.00  0.00     0.303 C 
ATOM      3  O   UNL     1       9.554  -2.474  -3.047  1.00  0.00    -0.252 OA
BRANCH   2   4
ATOM      4  O   UNL     1       7.295  -2.506  -3.434  1.00  0.00    -0.481 OA
ATOM      5  H   UNL     1       6.860  -2.111  -4.257  1.00  0.00     0.296 HD
ENDBRANCH   2   4
ENDBRANCH   1   2
BRANCH   1   6
ATOM      6  C   UNL     1       6.993  -0.011  -2.190  1.00  0.00     0.047 C 
BRANCH   6   7
ATOM      7  C   UNL     1       6.486   0.028  -0.793  1.00  0.00    -0.047 A 
ATOM      8  C   UNL     1       5.847   1.158  -0.304  1.00  0.00     0.004 A 
ATOM      9  C   UNL     1       6.628  -1.031   0.084  1.00  0.00     0.004 A 
ATOM     10  C   UNL     1       5.376   1.229   0.987  1.00  0.00     0.000 A 
ATOM     11  C   UNL     1       6.156  -0.959   1.377  1.00  0.00     0.000 A 
ATOM     12  C   UNL     1       5.524   0.166   1.856  1.00  0.00     0.000 A 
ENDBRANCH   6   7
ENDBRANCH   1   6
TORSDOF 4
ENDMDL
MODEL 3
REMARK VINA RESULT:      -7.2      0.650      1.519
REMARK SMILES O=C(O)CCc1ccccc1
REMARK SMILES IDX 4 1 2 2 1 3 3 4 5 6 6 7 7 8 11 9 8 10 10 11 9 12
REMARK H PARENT 3 5
REMARK Flexibility Score: inf
ROOT
ATOM      1  C   UNL     1       8.248  -1.009  -1.784  1.00  0.00     0.127 C 
ENDROOT
BRANCH   1   2
ATOM      2  C   UNL     1       8.383  -2.030  -2.837  1.00  0.00     0.303 C 
ATOM      3  O   UNL     1       9.532  -2.463  -3.127  1.00  0.00    -0.252 OA
BRANCH   2   4
ATOM      4  O   UNL     1       7.276  -2.541  -3.530  1.00  0.00    -0.481 OA
ATOM      5  H   UNL     1       7.270  -2.486  -4.539  1.00  0.00     0.296 HD
ENDBRANCH   2   4
ENDBRANCH   1   2
BRANCH   1   6
ATOM      6  C   UNL     1       7.359  -1.473  -0.645  1.00  0.00     0.047 C 
BRANCH   6   7
ATOM      7  C   UNL     1       6.548  -0.348  -0.110  1.00  0.00    -0.047 A 
ATOM      8  C   UNL     1       6.068  -0.378   1.192  1.00  0.00     0.004 A 
ATOM      9  C   UNL     1       6.222   0.765  -0.864  1.00  0.00     0.004 A 
ATOM     10  C   UNL     1       5.306   0.643   1.713  1.00  0.00     0.000 A 
ATOM     11  C   UNL     1       5.459   1.786  -0.340  1.00  0.00     0.000 A 
ATOM     12  C   UNL     1       4.985   1.749   0.952  1.00  0.00     0.000 A 
ENDBRANCH   6   7
ENDBRANCH   1   6
TORSDOF 4
ENDMDL
MODEL 4
REMARK VINA RESULT:      -6.8      3.321      5.156
REMARK SMILES O=C(O)CCc1ccccc1
REMARK SMILES IDX 4 1 2 2 1 3 3 4 5 6 6 7 7 8 11 9 8 10 10 11 9 12
REMARK H PARENT 3 5
REMARK Flexibility Score: inf
ROOT
ATOM      1  C   UNL     1       5.013   1.740   0.707  1.00  0.00     0.127 C 
ENDROOT
BRANCH   1   2
ATOM      2  C   UNL     1       4.476   1.095   1.918  1.00  0.00     0.303 C 
ATOM      3  O   UNL     1       5.151   0.189   2.479  1.00  0.00    -0.252 OA
BRANCH   2   4
ATOM      4  O   UNL     1       3.240   1.456   2.472  1.00  0.00    -0.481 OA
ATOM      5  H   UNL     1       2.863   0.893   3.223  1.00  0.00     0.296 HD
ENDBRANCH   2   4
ENDBRANCH   1   2
BRANCH   1   6
ATOM      6  C   UNL     1       6.524   1.875   0.750  1.00  0.00     0.047 C 
BRANCH   6   7
ATOM      7  C   UNL     1       7.161   1.084  -0.336  1.00  0.00    -0.047 A 
ATOM      8  C   UNL     1       6.425   0.159  -1.062  1.00  0.00     0.004 A 
ATOM      9  C   UNL     1       8.496   1.214  -0.672  1.00  0.00     0.004 A 
ATOM     10  C   UNL     1       6.988  -0.596  -2.066  1.00  0.00     0.000 A 
ATOM     11  C   UNL     1       9.058   0.457  -1.677  1.00  0.00     0.000 A 
ATOM     12  C   UNL     1       8.322  -0.460  -2.393  1.00  0.00     0.000 A 
ENDBRANCH   6   7
ENDBRANCH   1   6
TORSDOF 4
ENDMDL
MODEL 5
REMARK VINA RESULT:      -6.6      1.866      2.866
REMARK SMILES O=C(O)CCc1ccccc1
REMARK SMILES IDX 4 1 2 2 1 3 3 4 5 6 6 7 7 8 11 9 8 10 10 11 9 12
REMARK H PARENT 3 5
REMARK Flexibility Score: inf
ROOT
ATOM      1  C   UNL     1       8.194  -1.571   1.023  1.00  0.00     0.127 C 
ENDROOT
BRANCH   1   2
ATOM      2  C   UNL     1       8.478  -2.779   0.229  1.00  0.00     0.303 C 
ATOM      3  O   UNL     1       9.094  -3.737   0.771  1.00  0.00    -0.252 OA
BRANCH   2   4
ATOM      4  O   UNL     1       8.085  -2.903  -1.112  1.00  0.00    -0.481 OA
ATOM      5  H   UNL     1       8.542  -2.325  -1.804  1.00  0.00     0.296 HD
ENDBRANCH   2   4
ENDBRANCH   1   2
BRANCH   1   6
ATOM      6  C   UNL     1       6.719  -1.438   1.358  1.00  0.00     0.047 C 
BRANCH   6   7
ATOM      7  C   UNL     1       6.159  -0.176   0.809  1.00  0.00    -0.047 A 
ATOM      8  C   UNL     1       6.410   0.198  -0.503  1.00  0.00     0.004 A 
ATOM      9  C   UNL     1       5.382   0.687   1.560  1.00  0.00     0.004 A 
ATOM     10  C   UNL     1       5.915   1.365  -1.037  1.00  0.00     0.000 A 
ATOM     11  C   UNL     1       4.887   1.856   1.024  1.00  0.00     0.000 A 
ATOM     12  C   UNL     1       5.141   2.220  -0.279  1.00  0.00     0.000 A 
ENDBRANCH   6   7
ENDBRANCH   1   6
TORSDOF 4
ENDMDL
