@<TRIPOS>MOLECULE
/home/cewinharhar/GITHUB/reincatalyze/data/processed/docking_pred/2023-Apr-25-2248_maxeplen10_maxtrainstep1000_exh16_gamma099_lrac3e-4_lrcr1e-3/c2b16f598521213e119e3a09a49f7e8c9c89cc3b_ligand_2.pdbqt
 12 12 0 0 0
SMALL
GASTEIGER

@<TRIPOS>ATOM
      1  C          8.3910   -0.7220   -2.0330 C.3     1  UNL1        0.1270
      2  C          8.3900   -1.9370   -2.8680 C.2     1  UNL1        0.3030
      3  O          7.2880   -2.4150   -3.2510 O.2     1  UNL1       -0.2520
      4  O          9.5740   -2.5800   -3.2540 O.3     1  UNL1       -0.4810
      5  H         10.4480   -2.0800   -3.1620 H       1  UNL1        0.2960
      6  C          7.0630    0.0120   -2.0850 C.3     1  UNL1        0.0470
      7  C          6.4740    0.1430   -0.7270 C.2     1  UNL1       -0.0470
      8  C          6.5940   -0.8830    0.1990 C.2     1  UNL1        0.0040
      9  C          5.7770    1.2660   -0.3190 C.2     1  UNL1        0.0040
     10  C          6.0500   -0.7960    1.4600 C.2     1  UNL1        0.0000
     11  C          5.2340    1.3520    0.9440 C.2     1  UNL1        0.0000
     12  C          5.3560    0.3290    1.8570 C.2     1  UNL1        0.0000
@<TRIPOS>BOND
     1     4     5    1
     2     4     2    1
     3     3     2    2
     4     2     1    1
     5     6     1    1
     6     6     7    1
     7     7     9    2
     8     7     8    1
     9     9    11    1
    10     8    10    2
    11    11    12    2
    12    10    12    1
