@<TRIPOS>MOLECULE
/home/cewinharhar/GITHUB/reincatalyze/data/processed/docking_pred/2023-Apr-25-2248_maxeplen10_maxtrainstep1000_exh16_gamma099_lrac3e-4_lrcr1e-3/c2b16f598521213e119e3a09a49f7e8c9c89cc3b_ligand_2.pdbqt
 12 12 0 0 0
SMALL
GASTEIGER

@<TRIPOS>ATOM
      1  C          8.1940   -1.5710    1.0230 C.3     1  UNL1        0.1270
      2  C          8.4780   -2.7790    0.2290 C.2     1  UNL1        0.3030
      3  O          9.0940   -3.7370    0.7710 O.2     1  UNL1       -0.2520
      4  O          8.0850   -2.9030   -1.1120 O.3     1  UNL1       -0.4810
      5  H          8.5420   -2.3250   -1.8040 H       1  UNL1        0.2960
      6  C          6.7190   -1.4380    1.3580 C.3     1  UNL1        0.0470
      7  C          6.1590   -0.1760    0.8090 C.2     1  UNL1       -0.0470
      8  C          6.4100    0.1980   -0.5030 C.2     1  UNL1        0.0040
      9  C          5.3820    0.6870    1.5600 C.2     1  UNL1        0.0040
     10  C          5.9150    1.3650   -1.0370 C.2     1  UNL1        0.0000
     11  C          4.8870    1.8560    1.0240 C.2     1  UNL1        0.0000
     12  C          5.1410    2.2200   -0.2790 C.2     1  UNL1        0.0000
@<TRIPOS>BOND
     1     5     4    1
     2     4     2    1
     3    10     8    1
     4    10    12    2
     5     8     7    2
     6    12    11    1
     7     2     3    2
     8     2     1    1
     9     7     6    1
    10     7     9    1
    11     1     6    1
    12    11     9    2
