@<TRIPOS>MOLECULE
/home/cewinharhar/GITHUB/reincatalyze/data/processed/docking_pred/2023-Apr-25-2248_maxeplen10_maxtrainstep1000_exh16_gamma099_lrac3e-4_lrcr1e-3/c2b16f598521213e119e3a09a49f7e8c9c89cc3b_ligand_2.pdbqt
 12 12 0 0 0
SMALL
GASTEIGER

@<TRIPOS>ATOM
      1  C          8.3990   -0.5810   -2.2430 C.3     1  UNL1        0.1270
      2  C          8.4450   -1.8880   -2.9220 C.2     1  UNL1        0.3030
      3  O          9.5540   -2.4740   -3.0470 O.2     1  UNL1       -0.2520
      4  O          7.2950   -2.5060   -3.4340 O.3     1  UNL1       -0.4810
      5  H          6.8600   -2.1110   -4.2570 H       1  UNL1        0.2960
      6  C          6.9930   -0.0110   -2.1900 C.3     1  UNL1        0.0470
      7  C          6.4860    0.0280   -0.7930 C.2     1  UNL1       -0.0470
      8  C          5.8470    1.1580   -0.3040 C.2     1  UNL1        0.0040
      9  C          6.6280   -1.0310    0.0840 C.2     1  UNL1        0.0040
     10  C          5.3760    1.2290    0.9870 C.2     1  UNL1        0.0000
     11  C          6.1560   -0.9590    1.3770 C.2     1  UNL1        0.0000
     12  C          5.5240    0.1660    1.8560 C.2     1  UNL1        0.0000
@<TRIPOS>BOND
     1     5     4    1
     2     4     2    1
     3     3     2    2
     4     2     1    1
     5     1     6    1
     6     6     7    1
     7     7     8    2
     8     7     9    1
     9     8    10    1
    10     9    11    2
    11    10    12    2
    12    11    12    1
