@<TRIPOS>MOLECULE
/home/cewinharhar/GITHUB/reincatalyze/data/processed/docking_pred/2023-Apr-25-2248_maxeplen10_maxtrainstep1000_exh16_gamma099_lrac3e-4_lrcr1e-3/c2b16f598521213e119e3a09a49f7e8c9c89cc3b_ligand_2.pdbqt
 12 12 0 0 0
SMALL
GASTEIGER

@<TRIPOS>ATOM
      1  C          8.2480   -1.0090   -1.7840 C.3     1  UNL1        0.1270
      2  C          8.3830   -2.0300   -2.8370 C.2     1  UNL1        0.3030
      3  O          9.5320   -2.4630   -3.1270 O.2     1  UNL1       -0.2520
      4  O          7.2760   -2.5410   -3.5300 O.3     1  UNL1       -0.4810
      5  H          7.2700   -2.4860   -4.5390 H       1  UNL1        0.2960
      6  C          7.3590   -1.4730   -0.6450 C.3     1  UNL1        0.0470
      7  C          6.5480   -0.3480   -0.1100 C.2     1  UNL1       -0.0470
      8  C          6.0680   -0.3780    1.1920 C.2     1  UNL1        0.0040
      9  C          6.2220    0.7650   -0.8640 C.2     1  UNL1        0.0040
     10  C          5.3060    0.6430    1.7130 C.2     1  UNL1        0.0000
     11  C          5.4590    1.7860   -0.3400 C.2     1  UNL1        0.0000
     12  C          4.9850    1.7490    0.9520 C.2     1  UNL1        0.0000
@<TRIPOS>BOND
     1     5     4    1
     2     4     2    1
     3     3     2    2
     4     2     1    1
     5     1     6    1
     6     9    11    1
     7     9     7    2
     8     6     7    1
     9    11    12    2
    10     7     8    1
    11    12    10    1
    12     8    10    2
