@<TRIPOS>MOLECULE
/home/cewinharhar/GITHUB/reincatalyze/data/processed/docking_pred/2023-Apr-25-2248_maxeplen10_maxtrainstep1000_exh16_gamma099_lrac3e-4_lrcr1e-3/c2bbe2b0b698b4c34a14c6b9d782c5d04fb4e97c_ligand_2.pdbqt
 12 12 0 0 0
SMALL
GASTEIGER

@<TRIPOS>ATOM
      1  C          8.2690    0.3740   -1.9790 C.3     1  UNL1        0.1270
      2  C          9.4620    0.4160   -1.1140 C.2     1  UNL1        0.3030
      3  O          9.5310   -0.3670   -0.1280 O.2     1  UNL1       -0.2520
      4  O         10.5270    1.2970   -1.3520 O.3     1  UNL1       -0.4810
      5  H         11.4380    1.0650   -0.9790 H       1  UNL1        0.2960
      6  C          7.1970   -0.5530   -1.4330 C.3     1  UNL1        0.0470
      7  C          6.3810    0.1300   -0.3960 C.2     1  UNL1       -0.0470
      8  C          6.1670   -0.4640    0.8400 C.2     1  UNL1        0.0040
      9  C          5.7920    1.3640   -0.5990 C.2     1  UNL1        0.0040
     10  C          5.4080    0.1380    1.8180 C.2     1  UNL1        0.0000
     11  C          5.0320    1.9650    0.3810 C.2     1  UNL1        0.0000
     12  C          4.8230    1.3690    1.6040 C.2     1  UNL1        0.0000
@<TRIPOS>BOND
     1     1     6    1
     2     1     2    1
     3     6     7    1
     4     4     2    1
     5     4     5    1
     6     2     3    2
     7     9     7    2
     8     9    11    1
     9     7     8    1
    10    11    12    2
    11     8    10    2
    12    12    10    1
