@<TRIPOS>MOLECULE
/home/cewinharhar/GITHUB/reincatalyze/data/processed/docking_pred/2023-Apr-25-2248_maxeplen10_maxtrainstep1000_exh16_gamma099_lrac3e-4_lrcr1e-3/c2bbe2b0b698b4c34a14c6b9d782c5d04fb4e97c_ligand_2.pdbqt
 12 12 0 0 0
SMALL
GASTEIGER

@<TRIPOS>ATOM
      1  C          8.3930   -0.6520   -2.1280 C.3     1  UNL1        0.1270
      2  C          8.4200   -1.9050   -2.9020 C.2     1  UNL1        0.3030
      3  O          9.5230   -2.4870   -3.0880 O.2     1  UNL1       -0.2520
      4  O          7.2580   -2.4770   -3.4390 O.3     1  UNL1       -0.4810
      5  H          6.3780   -1.9960   -3.3110 H       1  UNL1        0.2960
      6  C          7.0130   -0.0180   -2.1090 C.3     1  UNL1        0.0470
      7  C          6.4750    0.0450   -0.7260 C.2     1  UNL1       -0.0470
      8  C          5.8290    1.1850   -0.2680 C.2     1  UNL1        0.0040
      9  C          6.5910   -1.0020    0.1710 C.2     1  UNL1        0.0040
     10  C          5.3290    1.2780    1.0100 C.2     1  UNL1        0.0000
     11  C          6.0890   -0.9070    1.4510 C.2     1  UNL1        0.0000
     12  C          5.4510    0.2280    1.8980 C.2     1  UNL1        0.0000
@<TRIPOS>BOND
     1     4     5    1
     2     4     2    1
     3     3     2    2
     4     2     1    1
     5     1     6    1
     6     6     7    1
     7     7     8    2
     8     7     9    1
     9     8    10    1
    10     9    11    2
    11    10    12    2
    12    11    12    1
