MODEL 1
REMARK VINA RESULT:      -7.3      0.000      0.000
REMARK SMILES O=C(O)CCc1ccccc1
REMARK SMILES IDX 4 1 2 2 1 3 3 4 5 6 6 7 7 8 11 9 8 10 10 11 9 12
REMARK H PARENT 3 5
REMARK Flexibility Score: inf
ROOT
ATOM      1  C   UNL     1       8.393  -0.652  -2.128  1.00  0.00     0.127 C 
ENDROOT
BRANCH   1   2
ATOM      2  C   UNL     1       8.420  -1.905  -2.902  1.00  0.00     0.303 C 
ATOM      3  O   UNL     1       9.523  -2.487  -3.088  1.00  0.00    -0.252 OA
BRANCH   2   4
ATOM      4  O   UNL     1       7.258  -2.477  -3.439  1.00  0.00    -0.481 OA
ATOM      5  H   UNL     1       6.378  -1.996  -3.311  1.00  0.00     0.296 HD
ENDBRANCH   2   4
ENDBRANCH   1   2
BRANCH   1   6
ATOM      6  C   UNL     1       7.013  -0.018  -2.109  1.00  0.00     0.047 C 
BRANCH   6   7
ATOM      7  C   UNL     1       6.475   0.045  -0.726  1.00  0.00    -0.047 A 
ATOM      8  C   UNL     1       5.829   1.185  -0.268  1.00  0.00     0.004 A 
ATOM      9  C   UNL     1       6.591  -1.002   0.171  1.00  0.00     0.004 A 
ATOM     10  C   UNL     1       5.329   1.278   1.010  1.00  0.00     0.000 A 
ATOM     11  C   UNL     1       6.089  -0.907   1.451  1.00  0.00     0.000 A 
ATOM     12  C   UNL     1       5.451   0.228   1.898  1.00  0.00     0.000 A 
ENDBRANCH   6   7
ENDBRANCH   1   6
TORSDOF 4
ENDMDL
MODEL 2
REMARK VINA RESULT:      -7.3      0.099      1.723
REMARK SMILES O=C(O)CCc1ccccc1
REMARK SMILES IDX 4 1 2 2 1 3 3 4 5 6 6 7 7 8 11 9 8 10 10 11 9 12
REMARK H PARENT 3 5
REMARK Flexibility Score: inf
ROOT
ATOM      1  C   UNL     1       8.398  -0.669  -2.106  1.00  0.00     0.127 C 
ENDROOT
BRANCH   1   2
ATOM      2  C   UNL     1       8.402  -1.917  -2.888  1.00  0.00     0.303 C 
ATOM      3  O   UNL     1       7.302  -2.424  -3.239  1.00  0.00    -0.252 OA
BRANCH   2   4
ATOM      4  O   UNL     1       9.590  -2.564  -3.259  1.00  0.00    -0.481 OA
ATOM      5  H   UNL     1       9.528  -3.454  -3.734  1.00  0.00     0.296 HD
ENDBRANCH   2   4
ENDBRANCH   1   2
BRANCH   1   6
ATOM      6  C   UNL     1       7.041   0.013  -2.120  1.00  0.00     0.047 C 
BRANCH   6   7
ATOM      7  C   UNL     1       6.482   0.114  -0.746  1.00  0.00    -0.047 A 
ATOM      8  C   UNL     1       6.612  -0.937   0.150  1.00  0.00     0.004 A 
ATOM      9  C   UNL     1       5.806   1.233  -0.294  1.00  0.00     0.004 A 
ATOM     10  C   UNL     1       6.097  -0.878   1.425  1.00  0.00     0.000 A 
ATOM     11  C   UNL     1       5.291   1.290   0.983  1.00  0.00     0.000 A 
ATOM     12  C   UNL     1       5.422   0.243   1.866  1.00  0.00     0.000 A 
ENDBRANCH   6   7
ENDBRANCH   1   6
TORSDOF 4
ENDMDL
MODEL 3
REMARK VINA RESULT:      -6.8      3.394      5.079
REMARK SMILES O=C(O)CCc1ccccc1
REMARK SMILES IDX 4 1 2 2 1 3 3 4 5 6 6 7 7 8 11 9 8 10 10 11 9 12
REMARK H PARENT 3 5
REMARK Flexibility Score: inf
ROOT
ATOM      1  C   UNL     1       4.991   1.803   0.723  1.00  0.00     0.127 C 
ENDROOT
BRANCH   1   2
ATOM      2  C   UNL     1       4.471   1.120   1.921  1.00  0.00     0.303 C 
ATOM      3  O   UNL     1       5.164   0.214   2.458  1.00  0.00    -0.252 OA
BRANCH   2   4
ATOM      4  O   UNL     1       3.230   1.445   2.488  1.00  0.00    -0.481 OA
ATOM      5  H   UNL     1       2.444   0.832   2.315  1.00  0.00     0.296 HD
ENDBRANCH   2   4
ENDBRANCH   1   2
BRANCH   1   6
ATOM      6  C   UNL     1       6.504   1.924   0.742  1.00  0.00     0.047 C 
BRANCH   6   7
ATOM      7  C   UNL     1       7.117   1.106  -0.336  1.00  0.00    -0.047 A 
ATOM      8  C   UNL     1       8.468   1.222  -0.631  1.00  0.00     0.004 A 
ATOM      9  C   UNL     1       6.393   0.209  -1.099  1.00  0.00     0.004 A 
ATOM     10  C   UNL     1       9.064   0.487  -1.630  1.00  0.00     0.000 A 
ATOM     11  C   UNL     1       6.991  -0.527  -2.100  1.00  0.00     0.000 A 
ATOM     12  C   UNL     1       8.332  -0.405  -2.387  1.00  0.00     0.000 A 
ENDBRANCH   6   7
ENDBRANCH   1   6
TORSDOF 4
ENDMDL
MODEL 4
REMARK VINA RESULT:      -6.6      1.991      2.686
REMARK SMILES O=C(O)CCc1ccccc1
REMARK SMILES IDX 4 1 2 2 1 3 3 4 5 6 6 7 7 8 11 9 8 10 10 11 9 12
REMARK H PARENT 3 5
REMARK Flexibility Score: inf
ROOT
ATOM      1  C   UNL     1       8.269   0.374  -1.979  1.00  0.00     0.127 C 
ENDROOT
BRANCH   1   2
ATOM      2  C   UNL     1       9.462   0.416  -1.114  1.00  0.00     0.303 C 
ATOM      3  O   UNL     1       9.531  -0.367  -0.128  1.00  0.00    -0.252 OA
BRANCH   2   4
ATOM      4  O   UNL     1      10.527   1.297  -1.352  1.00  0.00    -0.481 OA
ATOM      5  H   UNL     1      11.438   1.065  -0.979  1.00  0.00     0.296 HD
ENDBRANCH   2   4
ENDBRANCH   1   2
BRANCH   1   6
ATOM      6  C   UNL     1       7.197  -0.553  -1.433  1.00  0.00     0.047 C 
BRANCH   6   7
ATOM      7  C   UNL     1       6.381   0.130  -0.396  1.00  0.00    -0.047 A 
ATOM      8  C   UNL     1       6.167  -0.464   0.840  1.00  0.00     0.004 A 
ATOM      9  C   UNL     1       5.792   1.364  -0.599  1.00  0.00     0.004 A 
ATOM     10  C   UNL     1       5.408   0.138   1.818  1.00  0.00     0.000 A 
ATOM     11  C   UNL     1       5.032   1.965   0.381  1.00  0.00     0.000 A 
ATOM     12  C   UNL     1       4.823   1.369   1.604  1.00  0.00     0.000 A 
ENDBRANCH   6   7
ENDBRANCH   1   6
TORSDOF 4
ENDMDL
MODEL 5
REMARK VINA RESULT:      -6.6      3.820      4.962
REMARK SMILES O=C(O)CCc1ccccc1
REMARK SMILES IDX 4 1 2 2 1 3 3 4 5 6 6 7 7 8 11 9 8 10 10 11 9 12
REMARK H PARENT 3 5
REMARK Flexibility Score: inf
ROOT
ATOM      1  C   UNL     1       5.602   3.075   0.014  1.00  0.00     0.127 C 
ENDROOT
BRANCH   1   2
ATOM      2  C   UNL     1       6.348   4.012   0.872  1.00  0.00     0.303 C 
ATOM      3  O   UNL     1       7.204   4.775   0.347  1.00  0.00    -0.252 OA
BRANCH   2   4
ATOM      4  O   UNL     1       6.140   4.085   2.257  1.00  0.00    -0.481 OA
ATOM      5  H   UNL     1       6.309   4.965   2.725  1.00  0.00     0.296 HD
ENDBRANCH   2   4
ENDBRANCH   1   2
BRANCH   1   6
ATOM      6  C   UNL     1       4.849   2.032   0.821  1.00  0.00     0.047 C 
BRANCH   6   7
ATOM      7  C   UNL     1       5.628   0.770   0.917  1.00  0.00    -0.047 A 
ATOM      8  C   UNL     1       6.367   0.310  -0.163  1.00  0.00     0.004 A 
ATOM      9  C   UNL     1       5.654  -0.008   2.061  1.00  0.00     0.004 A 
ATOM     10  C   UNL     1       7.090  -0.860  -0.109  1.00  0.00     0.000 A 
ATOM     11  C   UNL     1       6.379  -1.179   2.113  1.00  0.00     0.000 A 
ATOM     12  C   UNL     1       7.108  -1.630   1.037  1.00  0.00     0.000 A 
ENDBRANCH   6   7
ENDBRANCH   1   6
TORSDOF 4
ENDMDL
