@<TRIPOS>MOLECULE
/home/cewinharhar/GITHUB/reincatalyze/data/processed/docking_pred/2023-Apr-25-2248_maxeplen10_maxtrainstep1000_exh16_gamma099_lrac3e-4_lrcr1e-3/c2bbe2b0b698b4c34a14c6b9d782c5d04fb4e97c_ligand_2.pdbqt
 12 12 0 0 0
SMALL
GASTEIGER

@<TRIPOS>ATOM
      1  C          4.9910    1.8030    0.7230 C.3     1  UNL1        0.1270
      2  C          4.4710    1.1200    1.9210 C.2     1  UNL1        0.3030
      3  O          5.1640    0.2140    2.4580 O.2     1  UNL1       -0.2520
      4  O          3.2300    1.4450    2.4880 O.3     1  UNL1       -0.4810
      5  H          2.4440    0.8320    2.3150 H       1  UNL1        0.2960
      6  C          6.5040    1.9240    0.7420 C.3     1  UNL1        0.0470
      7  C          7.1170    1.1060   -0.3360 C.2     1  UNL1       -0.0470
      8  C          8.4680    1.2220   -0.6310 C.2     1  UNL1        0.0040
      9  C          6.3930    0.2090   -1.0990 C.2     1  UNL1        0.0040
     10  C          9.0640    0.4870   -1.6300 C.2     1  UNL1        0.0000
     11  C          6.9910   -0.5270   -2.1000 C.2     1  UNL1        0.0000
     12  C          8.3320   -0.4050   -2.3870 C.2     1  UNL1        0.0000
@<TRIPOS>BOND
     1    12    11    2
     2    12    10    1
     3    11     9    1
     4    10     8    2
     5     9     7    2
     6     8     7    1
     7     7     6    1
     8     1     6    1
     9     1     2    1
    10     2     3    2
    11     2     4    1
    12     5     4    1
