@<TRIPOS>MOLECULE
/home/cewinharhar/GITHUB/reincatalyze/data/processed/docking_pred/2023-Apr-25-2248_maxeplen10_maxtrainstep1000_exh16_gamma099_lrac3e-4_lrcr1e-3/c2bbe2b0b698b4c34a14c6b9d782c5d04fb4e97c_ligand_2.pdbqt
 12 12 0 0 0
SMALL
GASTEIGER

@<TRIPOS>ATOM
      1  C          5.6020    3.0750    0.0140 C.3     1  UNL1        0.1270
      2  C          6.3480    4.0120    0.8720 C.2     1  UNL1        0.3030
      3  O          7.2040    4.7750    0.3470 O.2     1  UNL1       -0.2520
      4  O          6.1400    4.0850    2.2570 O.3     1  UNL1       -0.4810
      5  H          6.3090    4.9650    2.7250 H       1  UNL1        0.2960
      6  C          4.8490    2.0320    0.8210 C.3     1  UNL1        0.0470
      7  C          5.6280    0.7700    0.9170 C.2     1  UNL1       -0.0470
      8  C          6.3670    0.3100   -0.1630 C.2     1  UNL1        0.0040
      9  C          5.6540   -0.0080    2.0610 C.2     1  UNL1        0.0040
     10  C          7.0900   -0.8600   -0.1090 C.2     1  UNL1        0.0000
     11  C          6.3790   -1.1790    2.1130 C.2     1  UNL1        0.0000
     12  C          7.1080   -1.6300    1.0370 C.2     1  UNL1        0.0000
@<TRIPOS>BOND
     1     8    10    1
     2     8     7    2
     3    10    12    2
     4     1     6    1
     5     1     2    1
     6     3     2    2
     7     6     7    1
     8     2     4    1
     9     7     9    1
    10    12    11    1
    11     9    11    2
    12     4     5    1
