@<TRIPOS>MOLECULE
/home/cewinharhar/GITHUB/reincatalyze/data/processed/docking_pred/2023-Apr-25-2248_maxeplen10_maxtrainstep1000_exh16_gamma099_lrac3e-4_lrcr1e-3/c2bbe2b0b698b4c34a14c6b9d782c5d04fb4e97c_ligand_2.pdbqt
 12 12 0 0 0
SMALL
GASTEIGER

@<TRIPOS>ATOM
      1  C          8.3980   -0.6690   -2.1060 C.3     1  UNL1        0.1270
      2  C          8.4020   -1.9170   -2.8880 C.2     1  UNL1        0.3030
      3  O          7.3020   -2.4240   -3.2390 O.2     1  UNL1       -0.2520
      4  O          9.5900   -2.5640   -3.2590 O.3     1  UNL1       -0.4810
      5  H          9.5280   -3.4540   -3.7340 H       1  UNL1        0.2960
      6  C          7.0410    0.0130   -2.1200 C.3     1  UNL1        0.0470
      7  C          6.4820    0.1140   -0.7460 C.2     1  UNL1       -0.0470
      8  C          6.6120   -0.9370    0.1500 C.2     1  UNL1        0.0040
      9  C          5.8060    1.2330   -0.2940 C.2     1  UNL1        0.0040
     10  C          6.0970   -0.8780    1.4250 C.2     1  UNL1        0.0000
     11  C          5.2910    1.2900    0.9830 C.2     1  UNL1        0.0000
     12  C          5.4220    0.2430    1.8660 C.2     1  UNL1        0.0000
@<TRIPOS>BOND
     1     5     4    1
     2     4     2    1
     3     3     2    2
     4     2     1    1
     5     6     1    1
     6     6     7    1
     7     7     9    2
     8     7     8    1
     9     9    11    1
    10     8    10    2
    11    11    12    2
    12    10    12    1
