@<TRIPOS>MOLECULE
/home/cewinharhar/GITHUB/reincatalyze/data/processed/docking_pred/2023-Apr-25-2248_maxeplen10_maxtrainstep1000_exh16_gamma099_lrac3e-4_lrcr1e-3/c584487daa348165e33ca71579c90fd99cb4babd_ligand_2.pdbqt
 12 12 0 0 0
SMALL
GASTEIGER

@<TRIPOS>ATOM
      1  C          8.4070   -0.6460   -2.1530 C.3     1  UNL1        0.1270
      2  C          8.4340   -1.9120   -2.9070 C.2     1  UNL1        0.3030
      3  O          9.5370   -2.4990   -3.0790 O.2     1  UNL1       -0.2520
      4  O          7.2730   -2.4890   -3.4410 O.3     1  UNL1       -0.4810
      5  H          7.3440   -3.0050   -4.3080 H       1  UNL1        0.2960
      6  C          7.0260   -0.0160   -2.1380 C.3     1  UNL1        0.0470
      7  C          6.4950    0.0710   -0.7530 C.2     1  UNL1       -0.0470
      8  C          6.6270   -0.9960    0.1240 C.2     1  UNL1        0.0040
      9  C          5.8430    1.1910   -0.2710 C.2     1  UNL1        0.0040
     10  C          6.1370   -0.9500    1.4090 C.2     1  UNL1        0.0000
     11  C          5.3530    1.2350    1.0170 C.2     1  UNL1        0.0000
     12  C          5.4870    0.1720    1.8810 C.2     1  UNL1        0.0000
@<TRIPOS>BOND
     1     5     4    1
     2     4     2    1
     3     3     2    2
     4     2     1    1
     5     1     6    1
     6     6     7    1
     7     7     9    2
     8     7     8    1
     9     9    11    1
    10     8    10    2
    11    11    12    2
    12    10    12    1
