@<TRIPOS>MOLECULE
/home/cewinharhar/GITHUB/reincatalyze/data/processed/docking_pred/2023-Apr-25-2248_maxeplen10_maxtrainstep1000_exh16_gamma099_lrac3e-4_lrcr1e-3/c584487daa348165e33ca71579c90fd99cb4babd_ligand_2.pdbqt
 12 12 0 0 0
SMALL
GASTEIGER

@<TRIPOS>ATOM
      1  C          8.2640   -1.0350   -1.7430 C.3     1  UNL1        0.1270
      2  C          8.3720   -2.0350   -2.8200 C.2     1  UNL1        0.3030
      3  O          9.5080   -2.4980   -3.1140 O.2     1  UNL1       -0.2520
      4  O          7.2540   -2.4910   -3.5320 O.3     1  UNL1       -0.4810
      5  H          7.2000   -3.4720   -3.7710 H       1  UNL1        0.2960
      6  C          7.3950   -1.5200   -0.5960 C.3     1  UNL1        0.0470
      7  C          6.5700   -0.4120   -0.0480 C.2     1  UNL1       -0.0470
      8  C          6.2670    0.6960   -0.8250 C.2     1  UNL1        0.0040
      9  C          6.0750   -0.4160    1.2440 C.2     1  UNL1        0.0040
     10  C          5.5140    1.7430   -0.3430 C.2     1  UNL1        0.0000
     11  C          5.3220    0.6330    1.7250 C.2     1  UNL1        0.0000
     12  C          5.0260    1.7300    0.9480 C.2     1  UNL1        0.0000
@<TRIPOS>BOND
     1     5     4    1
     2     4     2    1
     3     3     2    2
     4     2     1    1
     5     1     6    1
     6     8    10    1
     7     8     7    2
     8     6     7    1
     9    10    12    2
    10     7     9    1
    11    12    11    1
    12     9    11    2
