MODEL 1
REMARK VINA RESULT:      -7.3      0.000      0.000
REMARK SMILES O=C(O)CCc1ccccc1
REMARK SMILES IDX 4 1 2 2 1 3 3 4 5 6 6 7 7 8 11 9 8 10 10 11 9 12
REMARK H PARENT 3 5
REMARK Flexibility Score: inf
ROOT
ATOM      1  C   UNL     1       8.407  -0.646  -2.153  1.00  0.00     0.127 C 
ENDROOT
BRANCH   1   2
ATOM      2  C   UNL     1       8.434  -1.912  -2.907  1.00  0.00     0.303 C 
ATOM      3  O   UNL     1       9.537  -2.499  -3.079  1.00  0.00    -0.252 OA
BRANCH   2   4
ATOM      4  O   UNL     1       7.273  -2.489  -3.441  1.00  0.00    -0.481 OA
ATOM      5  H   UNL     1       7.344  -3.005  -4.308  1.00  0.00     0.296 HD
ENDBRANCH   2   4
ENDBRANCH   1   2
BRANCH   1   6
ATOM      6  C   UNL     1       7.026  -0.016  -2.138  1.00  0.00     0.047 C 
BRANCH   6   7
ATOM      7  C   UNL     1       6.495   0.071  -0.753  1.00  0.00    -0.047 A 
ATOM      8  C   UNL     1       6.627  -0.996   0.124  1.00  0.00     0.004 A 
ATOM      9  C   UNL     1       5.843   1.191  -0.271  1.00  0.00     0.004 A 
ATOM     10  C   UNL     1       6.137  -0.950   1.409  1.00  0.00     0.000 A 
ATOM     11  C   UNL     1       5.353   1.235   1.017  1.00  0.00     0.000 A 
ATOM     12  C   UNL     1       5.487   0.172   1.881  1.00  0.00     0.000 A 
ENDBRANCH   6   7
ENDBRANCH   1   6
TORSDOF 4
ENDMDL
MODEL 2
REMARK VINA RESULT:      -7.3      0.025      1.421
REMARK SMILES O=C(O)CCc1ccccc1
REMARK SMILES IDX 4 1 2 2 1 3 3 4 5 6 6 7 7 8 11 9 8 10 10 11 9 12
REMARK H PARENT 3 5
REMARK Flexibility Score: inf
ROOT
ATOM      1  C   UNL     1       8.407  -0.629  -2.173  1.00  0.00     0.127 C 
ENDROOT
BRANCH   1   2
ATOM      2  C   UNL     1       8.438  -1.908  -2.903  1.00  0.00     0.303 C 
ATOM      3  O   UNL     1       9.542  -2.499  -3.055  1.00  0.00    -0.252 OA
BRANCH   2   4
ATOM      4  O   UNL     1       7.281  -2.494  -3.436  1.00  0.00    -0.481 OA
ATOM      5  H   UNL     1       6.396  -2.318  -2.979  1.00  0.00     0.296 HD
ENDBRANCH   2   4
ENDBRANCH   1   2
BRANCH   1   6
ATOM      6  C   UNL     1       7.017  -0.019  -2.143  1.00  0.00     0.047 C 
BRANCH   6   7
ATOM      7  C   UNL     1       6.486   0.030  -0.756  1.00  0.00    -0.047 A 
ATOM      8  C   UNL     1       5.838   1.163  -0.286  1.00  0.00     0.004 A 
ATOM      9  C   UNL     1       6.612  -1.023   0.131  1.00  0.00     0.004 A 
ATOM     10  C   UNL     1       5.345   1.244   0.996  1.00  0.00     0.000 A 
ATOM     11  C   UNL     1       6.117  -0.941   1.415  1.00  0.00     0.000 A 
ATOM     12  C   UNL     1       5.477   0.187   1.875  1.00  0.00     0.000 A 
ENDBRANCH   6   7
ENDBRANCH   1   6
TORSDOF 4
ENDMDL
MODEL 3
REMARK VINA RESULT:      -7.2      0.693      1.646
REMARK SMILES O=C(O)CCc1ccccc1
REMARK SMILES IDX 4 1 2 2 1 3 3 4 5 6 6 7 7 8 11 9 8 10 10 11 9 12
REMARK H PARENT 3 5
REMARK Flexibility Score: inf
ROOT
ATOM      1  C   UNL     1       8.264  -1.035  -1.743  1.00  0.00     0.127 C 
ENDROOT
BRANCH   1   2
ATOM      2  C   UNL     1       8.372  -2.035  -2.820  1.00  0.00     0.303 C 
ATOM      3  O   UNL     1       9.508  -2.498  -3.114  1.00  0.00    -0.252 OA
BRANCH   2   4
ATOM      4  O   UNL     1       7.254  -2.491  -3.532  1.00  0.00    -0.481 OA
ATOM      5  H   UNL     1       7.200  -3.472  -3.771  1.00  0.00     0.296 HD
ENDBRANCH   2   4
ENDBRANCH   1   2
BRANCH   1   6
ATOM      6  C   UNL     1       7.395  -1.520  -0.596  1.00  0.00     0.047 C 
BRANCH   6   7
ATOM      7  C   UNL     1       6.570  -0.412  -0.048  1.00  0.00    -0.047 A 
ATOM      8  C   UNL     1       6.267   0.696  -0.825  1.00  0.00     0.004 A 
ATOM      9  C   UNL     1       6.075  -0.416   1.244  1.00  0.00     0.004 A 
ATOM     10  C   UNL     1       5.514   1.743  -0.343  1.00  0.00     0.000 A 
ATOM     11  C   UNL     1       5.322   0.633   1.725  1.00  0.00     0.000 A 
ATOM     12  C   UNL     1       5.026   1.730   0.948  1.00  0.00     0.000 A 
ENDBRANCH   6   7
ENDBRANCH   1   6
TORSDOF 4
ENDMDL
MODEL 4
REMARK VINA RESULT:      -7.1      0.710      1.608
REMARK SMILES O=C(O)CCc1ccccc1
REMARK SMILES IDX 4 1 2 2 1 3 3 4 5 6 6 7 7 8 11 9 8 10 10 11 9 12
REMARK H PARENT 3 5
REMARK Flexibility Score: inf
ROOT
ATOM      1  C   UNL     1       8.347  -1.077  -1.677  1.00  0.00     0.127 C 
ENDROOT
BRANCH   1   2
ATOM      2  C   UNL     1       8.374  -2.059  -2.775  1.00  0.00     0.303 C 
ATOM      3  O   UNL     1       7.285  -2.434  -3.288  1.00  0.00    -0.252 OA
BRANCH   2   4
ATOM      4  O   UNL     1       9.572  -2.594  -3.271  1.00  0.00    -0.481 OA
ATOM      5  H   UNL     1       9.890  -3.483  -2.912  1.00  0.00     0.296 HD
ENDBRANCH   2   4
ENDBRANCH   1   2
BRANCH   1   6
ATOM      6  C   UNL     1       7.445  -1.515  -0.537  1.00  0.00     0.047 C 
BRANCH   6   7
ATOM      7  C   UNL     1       6.602  -0.387  -0.061  1.00  0.00    -0.047 A 
ATOM      8  C   UNL     1       6.096  -0.377   1.231  1.00  0.00     0.004 A 
ATOM      9  C   UNL     1       6.272   0.690  -0.862  1.00  0.00     0.004 A 
ATOM     10  C   UNL     1       5.305   0.647   1.698  1.00  0.00     0.000 A 
ATOM     11  C   UNL     1       5.479   1.716  -0.393  1.00  0.00     0.000 A 
ATOM     12  C   UNL     1       4.980   1.717   0.890  1.00  0.00     0.000 A 
ENDBRANCH   6   7
ENDBRANCH   1   6
TORSDOF 4
ENDMDL
MODEL 5
REMARK VINA RESULT:      -6.8      3.399      5.097
REMARK SMILES O=C(O)CCc1ccccc1
REMARK SMILES IDX 4 1 2 2 1 3 3 4 5 6 6 7 7 8 11 9 8 10 10 11 9 12
REMARK H PARENT 3 5
REMARK Flexibility Score: inf
ROOT
ATOM      1  C   UNL     1       5.029   1.836   0.752  1.00  0.00     0.127 C 
ENDROOT
BRANCH   1   2
ATOM      2  C   UNL     1       4.477   1.137   1.927  1.00  0.00     0.303 C 
ATOM      3  O   UNL     1       5.150   0.215   2.463  1.00  0.00    -0.252 OA
BRANCH   2   4
ATOM      4  O   UNL     1       3.228   1.464   2.473  1.00  0.00    -0.481 OA
ATOM      5  H   UNL     1       2.406   1.369   1.891  1.00  0.00     0.296 HD
ENDBRANCH   2   4
ENDBRANCH   1   2
BRANCH   1   6
ATOM      6  C   UNL     1       6.545   1.899   0.781  1.00  0.00     0.047 C 
BRANCH   6   7
ATOM      7  C   UNL     1       7.133   1.095  -0.322  1.00  0.00    -0.047 A 
ATOM      8  C   UNL     1       8.474   1.224  -0.655  1.00  0.00     0.004 A 
ATOM      9  C   UNL     1       6.394   0.198  -1.071  1.00  0.00     0.004 A 
ATOM     10  C   UNL     1       9.046   0.502  -1.677  1.00  0.00     0.000 A 
ATOM     11  C   UNL     1       6.968  -0.525  -2.095  1.00  0.00     0.000 A 
ATOM     12  C   UNL     1       8.298  -0.390  -2.420  1.00  0.00     0.000 A 
ENDBRANCH   6   7
ENDBRANCH   1   6
TORSDOF 4
ENDMDL
