@<TRIPOS>MOLECULE
/home/cewinharhar/GITHUB/reincatalyze/data/processed/docking_pred/2023-Apr-25-2248_maxeplen10_maxtrainstep1000_exh16_gamma099_lrac3e-4_lrcr1e-3/c584487daa348165e33ca71579c90fd99cb4babd_ligand_2.pdbqt
 12 12 0 0 0
SMALL
GASTEIGER

@<TRIPOS>ATOM
      1  C          8.4070   -0.6290   -2.1730 C.3     1  UNL1        0.1270
      2  C          8.4380   -1.9080   -2.9030 C.2     1  UNL1        0.3030
      3  O          9.5420   -2.4990   -3.0550 O.2     1  UNL1       -0.2520
      4  O          7.2810   -2.4940   -3.4360 O.3     1  UNL1       -0.4810
      5  H          6.3960   -2.3180   -2.9790 H       1  UNL1        0.2960
      6  C          7.0170   -0.0190   -2.1430 C.3     1  UNL1        0.0470
      7  C          6.4860    0.0300   -0.7560 C.2     1  UNL1       -0.0470
      8  C          5.8380    1.1630   -0.2860 C.2     1  UNL1        0.0040
      9  C          6.6120   -1.0230    0.1310 C.2     1  UNL1        0.0040
     10  C          5.3450    1.2440    0.9960 C.2     1  UNL1        0.0000
     11  C          6.1170   -0.9410    1.4150 C.2     1  UNL1        0.0000
     12  C          5.4770    0.1870    1.8750 C.2     1  UNL1        0.0000
@<TRIPOS>BOND
     1     4     5    1
     2     4     2    1
     3     3     2    2
     4     2     1    1
     5     1     6    1
     6     6     7    1
     7     7     8    2
     8     7     9    1
     9     8    10    1
    10     9    11    2
    11    10    12    2
    12    11    12    1
