@<TRIPOS>MOLECULE
/home/cewinharhar/GITHUB/reincatalyze/data/processed/docking_pred/2023-Apr-25-2248_maxeplen10_maxtrainstep1000_exh16_gamma099_lrac3e-4_lrcr1e-3/c584487daa348165e33ca71579c90fd99cb4babd_ligand_2.pdbqt
 12 12 0 0 0
SMALL
GASTEIGER

@<TRIPOS>ATOM
      1  C          5.0290    1.8360    0.7520 C.3     1  UNL1        0.1270
      2  C          4.4770    1.1370    1.9270 C.2     1  UNL1        0.3030
      3  O          5.1500    0.2150    2.4630 O.2     1  UNL1       -0.2520
      4  O          3.2280    1.4640    2.4730 O.3     1  UNL1       -0.4810
      5  H          2.4060    1.3690    1.8910 H       1  UNL1        0.2960
      6  C          6.5450    1.8990    0.7810 C.3     1  UNL1        0.0470
      7  C          7.1330    1.0950   -0.3220 C.2     1  UNL1       -0.0470
      8  C          8.4740    1.2240   -0.6550 C.2     1  UNL1        0.0040
      9  C          6.3940    0.1980   -1.0710 C.2     1  UNL1        0.0040
     10  C          9.0460    0.5020   -1.6770 C.2     1  UNL1        0.0000
     11  C          6.9680   -0.5250   -2.0950 C.2     1  UNL1        0.0000
     12  C          8.2980   -0.3900   -2.4200 C.2     1  UNL1        0.0000
@<TRIPOS>BOND
     1    12    11    2
     2    12    10    1
     3    11     9    1
     4    10     8    2
     5     9     7    2
     6     8     7    1
     7     7     6    1
     8     1     6    1
     9     1     2    1
    10     5     4    1
    11     2     3    2
    12     2     4    1
