@<TRIPOS>MOLECULE
/home/cewinharhar/GITHUB/reincatalyze/data/processed/docking_pred/2023-Apr-25-2248_maxeplen10_maxtrainstep1000_exh16_gamma099_lrac3e-4_lrcr1e-3/c584487daa348165e33ca71579c90fd99cb4babd_ligand_2.pdbqt
 12 12 0 0 0
SMALL
GASTEIGER

@<TRIPOS>ATOM
      1  C          8.3470   -1.0770   -1.6770 C.3     1  UNL1        0.1270
      2  C          8.3740   -2.0590   -2.7750 C.2     1  UNL1        0.3030
      3  O          7.2850   -2.4340   -3.2880 O.2     1  UNL1       -0.2520
      4  O          9.5720   -2.5940   -3.2710 O.3     1  UNL1       -0.4810
      5  H          9.8900   -3.4830   -2.9120 H       1  UNL1        0.2960
      6  C          7.4450   -1.5150   -0.5370 C.3     1  UNL1        0.0470
      7  C          6.6020   -0.3870   -0.0610 C.2     1  UNL1       -0.0470
      8  C          6.0960   -0.3770    1.2310 C.2     1  UNL1        0.0040
      9  C          6.2720    0.6900   -0.8620 C.2     1  UNL1        0.0040
     10  C          5.3050    0.6470    1.6980 C.2     1  UNL1        0.0000
     11  C          5.4790    1.7160   -0.3930 C.2     1  UNL1        0.0000
     12  C          4.9800    1.7170    0.8900 C.2     1  UNL1        0.0000
@<TRIPOS>BOND
     1     3     2    2
     2     4     5    1
     3     4     2    1
     4     2     1    1
     5     1     6    1
     6     9    11    1
     7     9     7    2
     8     6     7    1
     9    11    12    2
    10     7     8    1
    11    12    10    1
    12     8    10    2
