@<TRIPOS>MOLECULE
/home/cewinharhar/GITHUB/reincatalyze/data/processed/docking_pred/2023-Apr-25-2248_maxeplen10_maxtrainstep1000_exh16_gamma099_lrac3e-4_lrcr1e-3/c5f7f675b3df69e676e62d17e40489667b0e6a6f_ligand_2.pdbqt
 12 12 0 0 0
SMALL
GASTEIGER

@<TRIPOS>ATOM
      1  C          5.0190    1.7720    0.7200 C.3     1  UNL1        0.1270
      2  C          4.5020    1.1050    1.9280 C.2     1  UNL1        0.3030
      3  O          5.2040    0.2180    2.4860 O.2     1  UNL1       -0.2520
      4  O          3.2540    1.4230    2.4830 O.3     1  UNL1       -0.4810
      5  H          3.1970    2.1940    3.1350 H       1  UNL1        0.2960
      6  C          6.5300    1.9090    0.7430 C.3     1  UNL1        0.0470
      7  C          7.1540    1.1030   -0.3400 C.2     1  UNL1       -0.0470
      8  C          6.3980    0.2030   -1.0770 C.2     1  UNL1        0.0040
      9  C          8.4960    1.1940   -0.6610 C.2     1  UNL1        0.0040
     10  C          6.9480   -0.5640   -2.0780 C.2     1  UNL1        0.0000
     11  C          9.0450    0.4240   -1.6640 C.2     1  UNL1        0.0000
     12  C          8.2890   -0.4680   -2.3910 C.2     1  UNL1        0.0000
@<TRIPOS>BOND
     1    12    10    2
     2    12    11    1
     3    10     8    1
     4    11     9    2
     5     8     7    2
     6     9     7    1
     7     7     6    1
     8     1     6    1
     9     1     2    1
    10     2     4    1
    11     2     3    2
    12     4     5    1
