@<TRIPOS>MOLECULE
/home/cewinharhar/GITHUB/reincatalyze/data/processed/docking_pred/2023-Apr-25-2248_maxeplen10_maxtrainstep1000_exh16_gamma099_lrac3e-4_lrcr1e-3/c5f7f675b3df69e676e62d17e40489667b0e6a6f_ligand_2.pdbqt
 12 12 0 0 0
SMALL
GASTEIGER

@<TRIPOS>ATOM
      1  C          4.9890    1.7940    0.6980 C.3     1  UNL1        0.1270
      2  C          4.4900    1.1330    1.9170 C.2     1  UNL1        0.3030
      3  O          5.2070    0.2610    2.4770 O.2     1  UNL1       -0.2520
      4  O          3.2430    1.4430    2.4790 O.3     1  UNL1       -0.4810
      5  H          3.1100    2.3600    2.8840 H       1  UNL1        0.2960
      6  C          6.4990    1.9470    0.7050 C.3     1  UNL1        0.0470
      7  C          7.1240    1.1170   -0.3580 C.2     1  UNL1       -0.0470
      8  C          8.4860    1.1980   -0.6090 C.2     1  UNL1        0.0040
      9  C          6.4000    0.2430   -1.1480 C.2     1  UNL1        0.0040
     10  C          9.0930    0.4500   -1.5930 C.2     1  UNL1        0.0000
     11  C          7.0090   -0.5050   -2.1320 C.2     1  UNL1        0.0000
     12  C          8.3610   -0.4190   -2.3770 C.2     1  UNL1        0.0000
@<TRIPOS>BOND
     1    12    11    2
     2    12    10    1
     3    11     9    1
     4    10     8    2
     5     9     7    2
     6     8     7    1
     7     7     6    1
     8     1     6    1
     9     1     2    1
    10     2     3    2
    11     2     4    1
    12     4     5    1
