@<TRIPOS>MOLECULE
/home/cewinharhar/GITHUB/reincatalyze/data/processed/docking_pred/2023-Apr-25-2248_maxeplen10_maxtrainstep1000_exh16_gamma099_lrac3e-4_lrcr1e-3/c5f7f675b3df69e676e62d17e40489667b0e6a6f_ligand_2.pdbqt
 12 12 0 0 0
SMALL
GASTEIGER

@<TRIPOS>ATOM
      1  C          8.2430    0.1050   -2.1870 C.3     1  UNL1        0.1270
      2  C          9.3400    0.3550   -1.2360 C.2     1  UNL1        0.3030
      3  O          9.4370   -0.3690   -0.2080 O.2     1  UNL1       -0.2520
      4  O         10.2850    1.3730   -1.4350 O.3     1  UNL1       -0.4810
      5  H         10.2620    1.8900   -2.3030 H       1  UNL1        0.2960
      6  C          7.0820   -0.6320   -1.5430 C.3     1  UNL1        0.0470
      7  C          6.3220    0.2640   -0.6330 C.2     1  UNL1       -0.0470
      8  C          6.0850   -0.1020    0.6840 C.2     1  UNL1        0.0040
      9  C          5.8090    1.4820   -1.0390 C.2     1  UNL1        0.0040
     10  C          5.3750    0.7000    1.5490 C.2     1  UNL1        0.0000
     11  C          5.0980    2.2840   -0.1720 C.2     1  UNL1        0.0000
     12  C          4.8660    1.9140    1.1340 C.2     1  UNL1        0.0000
@<TRIPOS>BOND
     1     5     4    1
     2     1     6    1
     3     1     2    1
     4     6     7    1
     5     4     2    1
     6     2     3    2
     7     9     7    2
     8     9    11    1
     9     7     8    1
    10    11    12    2
    11     8    10    2
    12    12    10    1
