@<TRIPOS>MOLECULE
/home/cewinharhar/GITHUB/reincatalyze/data/processed/docking_pred/2023-Apr-25-2248_maxeplen10_maxtrainstep1000_exh16_gamma099_lrac3e-4_lrcr1e-3/c5f7f675b3df69e676e62d17e40489667b0e6a6f_ligand_2.pdbqt
 12 12 0 0 0
SMALL
GASTEIGER

@<TRIPOS>ATOM
      1  C          8.4100   -0.7060   -2.0690 C.3     1  UNL1        0.1270
      2  C          8.4390   -1.9400   -2.8740 C.2     1  UNL1        0.3030
      3  O          9.5420   -2.5200   -3.0660 O.2     1  UNL1       -0.2520
      4  O          7.2790   -2.4950   -3.4340 O.3     1  UNL1       -0.4810
      5  H          6.3870   -2.0770   -3.2110 H       1  UNL1        0.2960
      6  C          7.0490   -0.0340   -2.0990 C.3     1  UNL1        0.0470
      7  C          6.4750    0.0680   -0.7320 C.2     1  UNL1       -0.0470
      8  C          5.8070    1.2140   -0.3280 C.2     1  UNL1        0.0040
      9  C          6.5800   -0.9480    0.2010 C.2     1  UNL1        0.0040
     10  C          5.2730    1.3430    0.9340 C.2     1  UNL1        0.0000
     11  C          6.0450   -0.8180    1.4650 C.2     1  UNL1        0.0000
     12  C          5.3840    0.3240    1.8580 C.2     1  UNL1        0.0000
@<TRIPOS>BOND
     1     4     5    1
     2     4     2    1
     3     3     2    2
     4     2     1    1
     5     6     1    1
     6     6     7    1
     7     7     8    2
     8     7     9    1
     9     8    10    1
    10     9    11    2
    11    10    12    2
    12    11    12    1
