MODEL 1
REMARK VINA RESULT:      -7.3      0.000      0.000
REMARK SMILES O=C(O)CCc1ccccc1
REMARK SMILES IDX 4 1 2 2 1 3 3 4 5 6 6 7 7 8 11 9 8 10 10 11 9 12
REMARK H PARENT 3 5
REMARK Flexibility Score: inf
ROOT
ATOM      1  C   UNL     1       8.410  -0.706  -2.069  1.00  0.00     0.127 C 
ENDROOT
BRANCH   1   2
ATOM      2  C   UNL     1       8.439  -1.940  -2.874  1.00  0.00     0.303 C 
ATOM      3  O   UNL     1       9.542  -2.520  -3.066  1.00  0.00    -0.252 OA
BRANCH   2   4
ATOM      4  O   UNL     1       7.279  -2.495  -3.434  1.00  0.00    -0.481 OA
ATOM      5  H   UNL     1       6.387  -2.077  -3.211  1.00  0.00     0.296 HD
ENDBRANCH   2   4
ENDBRANCH   1   2
BRANCH   1   6
ATOM      6  C   UNL     1       7.049  -0.034  -2.099  1.00  0.00     0.047 C 
BRANCH   6   7
ATOM      7  C   UNL     1       6.475   0.068  -0.732  1.00  0.00    -0.047 A 
ATOM      8  C   UNL     1       5.807   1.214  -0.328  1.00  0.00     0.004 A 
ATOM      9  C   UNL     1       6.580  -0.948   0.201  1.00  0.00     0.004 A 
ATOM     10  C   UNL     1       5.273   1.343   0.934  1.00  0.00     0.000 A 
ATOM     11  C   UNL     1       6.045  -0.818   1.465  1.00  0.00     0.000 A 
ATOM     12  C   UNL     1       5.384   0.324   1.858  1.00  0.00     0.000 A 
ENDBRANCH   6   7
ENDBRANCH   1   6
TORSDOF 4
ENDMDL
MODEL 2
REMARK VINA RESULT:      -7.3      0.111      1.424
REMARK SMILES O=C(O)CCc1ccccc1
REMARK SMILES IDX 4 1 2 2 1 3 3 4 5 6 6 7 7 8 11 9 8 10 10 11 9 12
REMARK H PARENT 3 5
REMARK Flexibility Score: inf
ROOT
ATOM      1  C   UNL     1       8.379  -0.606  -2.221  1.00  0.00     0.127 C 
ENDROOT
BRANCH   1   2
ATOM      2  C   UNL     1       8.421  -1.896  -2.932  1.00  0.00     0.303 C 
ATOM      3  O   UNL     1       9.531  -2.477  -3.081  1.00  0.00    -0.252 OA
BRANCH   2   4
ATOM      4  O   UNL     1       7.268  -2.503  -3.450  1.00  0.00    -0.481 OA
ATOM      5  H   UNL     1       6.523  -2.749  -2.812  1.00  0.00     0.296 HD
ENDBRANCH   2   4
ENDBRANCH   1   2
BRANCH   1   6
ATOM      6  C   UNL     1       6.988   0.003  -2.221  1.00  0.00     0.047 C 
BRANCH   6   7
ATOM      7  C   UNL     1       6.464   0.134  -0.836  1.00  0.00    -0.047 A 
ATOM      8  C   UNL     1       6.586  -0.911   0.069  1.00  0.00     0.004 A 
ATOM      9  C   UNL     1       5.830   1.276  -0.381  1.00  0.00     0.004 A 
ATOM     10  C   UNL     1       6.102  -0.825   1.354  1.00  0.00     0.000 A 
ATOM     11  C   UNL     1       5.346   1.360   0.907  1.00  0.00     0.000 A 
ATOM     12  C   UNL     1       5.469   0.318   1.798  1.00  0.00     0.000 A 
ENDBRANCH   6   7
ENDBRANCH   1   6
TORSDOF 4
ENDMDL
MODEL 3
REMARK VINA RESULT:      -6.8      3.390      5.087
REMARK SMILES O=C(O)CCc1ccccc1
REMARK SMILES IDX 4 1 2 2 1 3 3 4 5 6 6 7 7 8 11 9 8 10 10 11 9 12
REMARK H PARENT 3 5
REMARK Flexibility Score: inf
ROOT
ATOM      1  C   UNL     1       5.019   1.772   0.720  1.00  0.00     0.127 C 
ENDROOT
BRANCH   1   2
ATOM      2  C   UNL     1       4.502   1.105   1.928  1.00  0.00     0.303 C 
ATOM      3  O   UNL     1       5.204   0.218   2.486  1.00  0.00    -0.252 OA
BRANCH   2   4
ATOM      4  O   UNL     1       3.254   1.423   2.483  1.00  0.00    -0.481 OA
ATOM      5  H   UNL     1       3.197   2.194   3.135  1.00  0.00     0.296 HD
ENDBRANCH   2   4
ENDBRANCH   1   2
BRANCH   1   6
ATOM      6  C   UNL     1       6.530   1.909   0.743  1.00  0.00     0.047 C 
BRANCH   6   7
ATOM      7  C   UNL     1       7.154   1.103  -0.340  1.00  0.00    -0.047 A 
ATOM      8  C   UNL     1       6.398   0.203  -1.077  1.00  0.00     0.004 A 
ATOM      9  C   UNL     1       8.496   1.194  -0.661  1.00  0.00     0.004 A 
ATOM     10  C   UNL     1       6.948  -0.564  -2.078  1.00  0.00     0.000 A 
ATOM     11  C   UNL     1       9.045   0.424  -1.664  1.00  0.00     0.000 A 
ATOM     12  C   UNL     1       8.289  -0.468  -2.391  1.00  0.00     0.000 A 
ENDBRANCH   6   7
ENDBRANCH   1   6
TORSDOF 4
ENDMDL
MODEL 4
REMARK VINA RESULT:      -6.8      3.397      5.090
REMARK SMILES O=C(O)CCc1ccccc1
REMARK SMILES IDX 4 1 2 2 1 3 3 4 5 6 6 7 7 8 11 9 8 10 10 11 9 12
REMARK H PARENT 3 5
REMARK Flexibility Score: inf
ROOT
ATOM      1  C   UNL     1       4.989   1.794   0.698  1.00  0.00     0.127 C 
ENDROOT
BRANCH   1   2
ATOM      2  C   UNL     1       4.490   1.133   1.917  1.00  0.00     0.303 C 
ATOM      3  O   UNL     1       5.207   0.261   2.477  1.00  0.00    -0.252 OA
BRANCH   2   4
ATOM      4  O   UNL     1       3.243   1.443   2.479  1.00  0.00    -0.481 OA
ATOM      5  H   UNL     1       3.110   2.360   2.884  1.00  0.00     0.296 HD
ENDBRANCH   2   4
ENDBRANCH   1   2
BRANCH   1   6
ATOM      6  C   UNL     1       6.499   1.947   0.705  1.00  0.00     0.047 C 
BRANCH   6   7
ATOM      7  C   UNL     1       7.124   1.117  -0.358  1.00  0.00    -0.047 A 
ATOM      8  C   UNL     1       8.486   1.198  -0.609  1.00  0.00     0.004 A 
ATOM      9  C   UNL     1       6.400   0.243  -1.148  1.00  0.00     0.004 A 
ATOM     10  C   UNL     1       9.093   0.450  -1.593  1.00  0.00     0.000 A 
ATOM     11  C   UNL     1       7.009  -0.505  -2.132  1.00  0.00     0.000 A 
ATOM     12  C   UNL     1       8.361  -0.419  -2.377  1.00  0.00     0.000 A 
ENDBRANCH   6   7
ENDBRANCH   1   6
TORSDOF 4
ENDMDL
MODEL 5
REMARK VINA RESULT:      -6.6      1.958      2.683
REMARK SMILES O=C(O)CCc1ccccc1
REMARK SMILES IDX 4 1 2 2 1 3 3 4 5 6 6 7 7 8 11 9 8 10 10 11 9 12
REMARK H PARENT 3 5
REMARK Flexibility Score: inf
ROOT
ATOM      1  C   UNL     1       8.243   0.105  -2.187  1.00  0.00     0.127 C 
ENDROOT
BRANCH   1   2
ATOM      2  C   UNL     1       9.340   0.355  -1.236  1.00  0.00     0.303 C 
ATOM      3  O   UNL     1       9.437  -0.369  -0.208  1.00  0.00    -0.252 OA
BRANCH   2   4
ATOM      4  O   UNL     1      10.285   1.373  -1.435  1.00  0.00    -0.481 OA
ATOM      5  H   UNL     1      10.262   1.890  -2.303  1.00  0.00     0.296 HD
ENDBRANCH   2   4
ENDBRANCH   1   2
BRANCH   1   6
ATOM      6  C   UNL     1       7.082  -0.632  -1.543  1.00  0.00     0.047 C 
BRANCH   6   7
ATOM      7  C   UNL     1       6.322   0.264  -0.633  1.00  0.00    -0.047 A 
ATOM      8  C   UNL     1       6.085  -0.102   0.684  1.00  0.00     0.004 A 
ATOM      9  C   UNL     1       5.809   1.482  -1.039  1.00  0.00     0.004 A 
ATOM     10  C   UNL     1       5.375   0.700   1.549  1.00  0.00     0.000 A 
ATOM     11  C   UNL     1       5.098   2.284  -0.172  1.00  0.00     0.000 A 
ATOM     12  C   UNL     1       4.866   1.914   1.134  1.00  0.00     0.000 A 
ENDBRANCH   6   7
ENDBRANCH   1   6
TORSDOF 4
ENDMDL
