@<TRIPOS>MOLECULE
/home/cewinharhar/GITHUB/reincatalyze/data/processed/docking_pred/2023-Apr-25-2248_maxeplen10_maxtrainstep1000_exh16_gamma099_lrac3e-4_lrcr1e-3/c5f7f675b3df69e676e62d17e40489667b0e6a6f_ligand_2.pdbqt
 12 12 0 0 0
SMALL
GASTEIGER

@<TRIPOS>ATOM
      1  C          8.3790   -0.6060   -2.2210 C.3     1  UNL1        0.1270
      2  C          8.4210   -1.8960   -2.9320 C.2     1  UNL1        0.3030
      3  O          9.5310   -2.4770   -3.0810 O.2     1  UNL1       -0.2520
      4  O          7.2680   -2.5030   -3.4500 O.3     1  UNL1       -0.4810
      5  H          6.5230   -2.7490   -2.8120 H       1  UNL1        0.2960
      6  C          6.9880    0.0030   -2.2210 C.3     1  UNL1        0.0470
      7  C          6.4640    0.1340   -0.8360 C.2     1  UNL1       -0.0470
      8  C          6.5860   -0.9110    0.0690 C.2     1  UNL1        0.0040
      9  C          5.8300    1.2760   -0.3810 C.2     1  UNL1        0.0040
     10  C          6.1020   -0.8250    1.3540 C.2     1  UNL1        0.0000
     11  C          5.3460    1.3600    0.9070 C.2     1  UNL1        0.0000
     12  C          5.4690    0.3180    1.7980 C.2     1  UNL1        0.0000
@<TRIPOS>BOND
     1     4     2    1
     2     4     5    1
     3     3     2    2
     4     2     1    1
     5     1     6    1
     6     6     7    1
     7     7     9    2
     8     7     8    1
     9     9    11    1
    10     8    10    2
    11    11    12    2
    12    10    12    1
