@<TRIPOS>MOLECULE
/home/cewinharhar/GITHUB/reincatalyze/data/processed/docking_pred/2023-Apr-25-2248_maxeplen10_maxtrainstep1000_exh16_gamma099_lrac3e-4_lrcr1e-3/c61eb663c2c3330cf201d691d278f59eb7eebd68_ligand_2.pdbqt
 12 12 0 0 0
SMALL
GASTEIGER

@<TRIPOS>ATOM
      1  C          8.2270   -1.6280    1.0050 C.3     1  UNL1        0.1270
      2  C          8.5030   -2.8450    0.2220 C.2     1  UNL1        0.3030
      3  O          9.1300   -3.7940    0.7660 O.2     1  UNL1       -0.2520
      4  O          8.0920   -2.9870   -1.1110 O.3     1  UNL1       -0.4810
      5  H          8.1750   -3.8940   -1.5490 H       1  UNL1        0.2960
      6  C          6.7600   -1.5040    1.3760 C.3     1  UNL1        0.0470
      7  C          6.1820   -0.2400    0.8500 C.2     1  UNL1       -0.0470
      8  C          6.4310    0.1630   -0.4540 C.2     1  UNL1        0.0040
      9  C          5.3890    0.5950    1.6140 C.2     1  UNL1        0.0040
     10  C          5.9200    1.3330   -0.9680 C.2     1  UNL1        0.0000
     11  C          4.8770    1.7670    1.0990 C.2     1  UNL1        0.0000
     12  C          5.1300    2.1610   -0.1950 C.2     1  UNL1        0.0000
@<TRIPOS>BOND
     1     5     4    1
     2     4     2    1
     3    10     8    1
     4    10    12    2
     5     8     7    2
     6    12    11    1
     7     2     3    2
     8     2     1    1
     9     7     6    1
    10     7     9    1
    11     1     6    1
    12    11     9    2
