@<TRIPOS>MOLECULE
/home/cewinharhar/GITHUB/reincatalyze/data/processed/docking_pred/2023-Apr-25-2248_maxeplen10_maxtrainstep1000_exh16_gamma099_lrac3e-4_lrcr1e-3/c61eb663c2c3330cf201d691d278f59eb7eebd68_ligand_2.pdbqt
 12 12 0 0 0
SMALL
GASTEIGER

@<TRIPOS>ATOM
      1  C          5.5120    2.9150    0.0450 C.3     1  UNL1        0.1270
      2  C          6.2770    3.8890    0.8420 C.2     1  UNL1        0.3030
      3  O          6.9500    4.7740    0.2470 O.2     1  UNL1       -0.2520
      4  O          6.2810    3.8690    2.2450 O.3     1  UNL1       -0.4810
      5  H          7.1640    3.9700    2.7270 H       1  UNL1        0.2960
      6  C          4.8270    1.8740    0.9120 C.3     1  UNL1        0.0470
      7  C          5.6370    0.6310    0.9940 C.2     1  UNL1       -0.0470
      8  C          6.3580    0.1830   -0.1030 C.2     1  UNL1        0.0040
      9  C          5.7120   -0.1400    2.1400 C.2     1  UNL1        0.0040
     10  C          7.1090   -0.9690   -0.0630 C.2     1  UNL1        0.0000
     11  C          6.4650   -1.2930    2.1790 C.2     1  UNL1        0.0000
     12  C          7.1760   -1.7330    1.0860 C.2     1  UNL1        0.0000
@<TRIPOS>BOND
     1     8    10    1
     2     8     7    2
     3    10    12    2
     4     1     2    1
     5     1     6    1
     6     3     2    2
     7     2     4    1
     8     6     7    1
     9     7     9    1
    10    12    11    1
    11     9    11    2
    12     4     5    1
