MODEL 1
REMARK VINA RESULT:      -7.3      0.000      0.000
REMARK SMILES O=C(O)CCc1ccccc1
REMARK SMILES IDX 4 1 2 2 1 3 3 4 5 6 6 7 7 8 11 9 8 10 10 11 9 12
REMARK H PARENT 3 5
REMARK Flexibility Score: inf
ROOT
ATOM      1  C   UNL     1       8.385  -0.700  -2.063  1.00  0.00     0.127 C 
ENDROOT
BRANCH   1   2
ATOM      2  C   UNL     1       8.407  -1.924  -2.883  1.00  0.00     0.303 C 
ATOM      3  O   UNL     1       9.508  -2.506  -3.084  1.00  0.00    -0.252 OA
BRANCH   2   4
ATOM      4  O   UNL     1       7.244  -2.468  -3.448  1.00  0.00    -0.481 OA
ATOM      5  H   UNL     1       6.426  -1.879  -3.530  1.00  0.00     0.296 HD
ENDBRANCH   2   4
ENDBRANCH   1   2
BRANCH   1   6
ATOM      6  C   UNL     1       7.023  -0.029  -2.071  1.00  0.00     0.047 C 
BRANCH   6   7
ATOM      7  C   UNL     1       6.471   0.071  -0.695  1.00  0.00    -0.047 A 
ATOM      8  C   UNL     1       6.578  -0.992   0.190  1.00  0.00     0.004 A 
ATOM      9  C   UNL     1       5.824   1.201  -0.228  1.00  0.00     0.004 A 
ATOM     10  C   UNL     1       6.068  -0.934   1.467  1.00  0.00     0.000 A 
ATOM     11  C   UNL     1       5.314   1.258   1.051  1.00  0.00     0.000 A 
ATOM     12  C   UNL     1       5.423   0.198   1.922  1.00  0.00     0.000 A 
ENDBRANCH   6   7
ENDBRANCH   1   6
TORSDOF 4
ENDMDL
MODEL 2
REMARK VINA RESULT:      -7.3      0.096      1.424
REMARK SMILES O=C(O)CCc1ccccc1
REMARK SMILES IDX 4 1 2 2 1 3 3 4 5 6 6 7 7 8 11 9 8 10 10 11 9 12
REMARK H PARENT 3 5
REMARK Flexibility Score: inf
ROOT
ATOM      1  C   UNL     1       8.420  -0.629  -2.175  1.00  0.00     0.127 C 
ENDROOT
BRANCH   1   2
ATOM      2  C   UNL     1       8.449  -1.907  -2.908  1.00  0.00     0.303 C 
ATOM      3  O   UNL     1       9.554  -2.490  -3.079  1.00  0.00    -0.252 OA
BRANCH   2   4
ATOM      4  O   UNL     1       7.287  -2.501  -3.421  1.00  0.00    -0.481 OA
ATOM      5  H   UNL     1       7.162  -2.532  -4.424  1.00  0.00     0.296 HD
ENDBRANCH   2   4
ENDBRANCH   1   2
BRANCH   1   6
ATOM      6  C   UNL     1       7.036  -0.004  -2.166  1.00  0.00     0.047 C 
BRANCH   6   7
ATOM      7  C   UNL     1       6.492   0.064  -0.785  1.00  0.00    -0.047 A 
ATOM      8  C   UNL     1       5.832   1.201  -0.339  1.00  0.00     0.004 A 
ATOM      9  C   UNL     1       6.616  -0.974   0.120  1.00  0.00     0.004 A 
ATOM     10  C   UNL     1       5.326   1.298   0.937  1.00  0.00     0.000 A 
ATOM     11  C   UNL     1       6.108  -0.875   1.398  1.00  0.00     0.000 A 
ATOM     12  C   UNL     1       5.457   0.257   1.833  1.00  0.00     0.000 A 
ENDBRANCH   6   7
ENDBRANCH   1   6
TORSDOF 4
ENDMDL
MODEL 3
REMARK VINA RESULT:      -6.8      3.384      5.094
REMARK SMILES O=C(O)CCc1ccccc1
REMARK SMILES IDX 4 1 2 2 1 3 3 4 5 6 6 7 7 8 11 9 8 10 10 11 9 12
REMARK H PARENT 3 5
REMARK Flexibility Score: inf
ROOT
ATOM      1  C   UNL     1       5.033   1.763   0.723  1.00  0.00     0.127 C 
ENDROOT
BRANCH   1   2
ATOM      2  C   UNL     1       4.494   1.101   1.924  1.00  0.00     0.303 C 
ATOM      3  O   UNL     1       5.175   0.198   2.483  1.00  0.00    -0.252 OA
BRANCH   2   4
ATOM      4  O   UNL     1       3.248   1.441   2.471  1.00  0.00    -0.481 OA
ATOM      5  H   UNL     1       2.413   1.217   1.947  1.00  0.00     0.296 HD
ENDBRANCH   2   4
ENDBRANCH   1   2
BRANCH   1   6
ATOM      6  C   UNL     1       6.549   1.845   0.743  1.00  0.00     0.047 C 
BRANCH   6   7
ATOM      7  C   UNL     1       7.141   1.028  -0.347  1.00  0.00    -0.047 A 
ATOM      8  C   UNL     1       8.471   1.188  -0.709  1.00  0.00     0.004 A 
ATOM      9  C   UNL     1       6.416   0.088  -1.057  1.00  0.00     0.004 A 
ATOM     10  C   UNL     1       9.047   0.454  -1.721  1.00  0.00     0.000 A 
ATOM     11  C   UNL     1       6.994  -0.646  -2.071  1.00  0.00     0.000 A 
ATOM     12  C   UNL     1       8.314  -0.481  -2.424  1.00  0.00     0.000 A 
ENDBRANCH   6   7
ENDBRANCH   1   6
TORSDOF 4
ENDMDL
MODEL 4
REMARK VINA RESULT:      -6.7      3.826      4.975
REMARK SMILES O=C(O)CCc1ccccc1
REMARK SMILES IDX 4 1 2 2 1 3 3 4 5 6 6 7 7 8 11 9 8 10 10 11 9 12
REMARK H PARENT 3 5
REMARK Flexibility Score: inf
ROOT
ATOM      1  C   UNL     1       5.512   2.915   0.045  1.00  0.00     0.127 C 
ENDROOT
BRANCH   1   2
ATOM      2  C   UNL     1       6.277   3.889   0.842  1.00  0.00     0.303 C 
ATOM      3  O   UNL     1       6.950   4.774   0.247  1.00  0.00    -0.252 OA
BRANCH   2   4
ATOM      4  O   UNL     1       6.281   3.869   2.245  1.00  0.00    -0.481 OA
ATOM      5  H   UNL     1       7.164   3.970   2.727  1.00  0.00     0.296 HD
ENDBRANCH   2   4
ENDBRANCH   1   2
BRANCH   1   6
ATOM      6  C   UNL     1       4.827   1.874   0.912  1.00  0.00     0.047 C 
BRANCH   6   7
ATOM      7  C   UNL     1       5.637   0.631   0.994  1.00  0.00    -0.047 A 
ATOM      8  C   UNL     1       6.358   0.183  -0.103  1.00  0.00     0.004 A 
ATOM      9  C   UNL     1       5.712  -0.140   2.140  1.00  0.00     0.004 A 
ATOM     10  C   UNL     1       7.109  -0.969  -0.063  1.00  0.00     0.000 A 
ATOM     11  C   UNL     1       6.465  -1.293   2.179  1.00  0.00     0.000 A 
ATOM     12  C   UNL     1       7.176  -1.733   1.086  1.00  0.00     0.000 A 
ENDBRANCH   6   7
ENDBRANCH   1   6
TORSDOF 4
ENDMDL
MODEL 5
REMARK VINA RESULT:      -6.6      1.862      2.800
REMARK SMILES O=C(O)CCc1ccccc1
REMARK SMILES IDX 4 1 2 2 1 3 3 4 5 6 6 7 7 8 11 9 8 10 10 11 9 12
REMARK H PARENT 3 5
REMARK Flexibility Score: inf
ROOT
ATOM      1  C   UNL     1       8.227  -1.628   1.005  1.00  0.00     0.127 C 
ENDROOT
BRANCH   1   2
ATOM      2  C   UNL     1       8.503  -2.845   0.222  1.00  0.00     0.303 C 
ATOM      3  O   UNL     1       9.130  -3.794   0.766  1.00  0.00    -0.252 OA
BRANCH   2   4
ATOM      4  O   UNL     1       8.092  -2.987  -1.111  1.00  0.00    -0.481 OA
ATOM      5  H   UNL     1       8.175  -3.894  -1.549  1.00  0.00     0.296 HD
ENDBRANCH   2   4
ENDBRANCH   1   2
BRANCH   1   6
ATOM      6  C   UNL     1       6.760  -1.504   1.376  1.00  0.00     0.047 C 
BRANCH   6   7
ATOM      7  C   UNL     1       6.182  -0.240   0.850  1.00  0.00    -0.047 A 
ATOM      8  C   UNL     1       6.431   0.163  -0.454  1.00  0.00     0.004 A 
ATOM      9  C   UNL     1       5.389   0.595   1.614  1.00  0.00     0.004 A 
ATOM     10  C   UNL     1       5.920   1.333  -0.968  1.00  0.00     0.000 A 
ATOM     11  C   UNL     1       4.877   1.767   1.099  1.00  0.00     0.000 A 
ATOM     12  C   UNL     1       5.130   2.161  -0.195  1.00  0.00     0.000 A 
ENDBRANCH   6   7
ENDBRANCH   1   6
TORSDOF 4
ENDMDL
