@<TRIPOS>MOLECULE
/home/cewinharhar/GITHUB/reincatalyze/data/processed/docking_pred/2023-Apr-25-2248_maxeplen10_maxtrainstep1000_exh16_gamma099_lrac3e-4_lrcr1e-3/c61eb663c2c3330cf201d691d278f59eb7eebd68_ligand_2.pdbqt
 12 12 0 0 0
SMALL
GASTEIGER

@<TRIPOS>ATOM
      1  C          8.4200   -0.6290   -2.1750 C.3     1  UNL1        0.1270
      2  C          8.4490   -1.9070   -2.9080 C.2     1  UNL1        0.3030
      3  O          9.5540   -2.4900   -3.0790 O.2     1  UNL1       -0.2520
      4  O          7.2870   -2.5010   -3.4210 O.3     1  UNL1       -0.4810
      5  H          7.1620   -2.5320   -4.4240 H       1  UNL1        0.2960
      6  C          7.0360   -0.0040   -2.1660 C.3     1  UNL1        0.0470
      7  C          6.4920    0.0640   -0.7850 C.2     1  UNL1       -0.0470
      8  C          5.8320    1.2010   -0.3390 C.2     1  UNL1        0.0040
      9  C          6.6160   -0.9740    0.1200 C.2     1  UNL1        0.0040
     10  C          5.3260    1.2980    0.9370 C.2     1  UNL1        0.0000
     11  C          6.1080   -0.8750    1.3980 C.2     1  UNL1        0.0000
     12  C          5.4570    0.2570    1.8330 C.2     1  UNL1        0.0000
@<TRIPOS>BOND
     1     5     4    1
     2     4     2    1
     3     3     2    2
     4     2     1    1
     5     1     6    1
     6     6     7    1
     7     7     8    2
     8     7     9    1
     9     8    10    1
    10     9    11    2
    11    10    12    2
    12    11    12    1
