@<TRIPOS>MOLECULE
/home/cewinharhar/GITHUB/reincatalyze/data/processed/docking_pred/2023-Apr-25-2248_maxeplen10_maxtrainstep1000_exh16_gamma099_lrac3e-4_lrcr1e-3/c61eb663c2c3330cf201d691d278f59eb7eebd68_ligand_2.pdbqt
 12 12 0 0 0
SMALL
GASTEIGER

@<TRIPOS>ATOM
      1  C          8.3850   -0.7000   -2.0630 C.3     1  UNL1        0.1270
      2  C          8.4070   -1.9240   -2.8830 C.2     1  UNL1        0.3030
      3  O          9.5080   -2.5060   -3.0840 O.2     1  UNL1       -0.2520
      4  O          7.2440   -2.4680   -3.4480 O.3     1  UNL1       -0.4810
      5  H          6.4260   -1.8790   -3.5300 H       1  UNL1        0.2960
      6  C          7.0230   -0.0290   -2.0710 C.3     1  UNL1        0.0470
      7  C          6.4710    0.0710   -0.6950 C.2     1  UNL1       -0.0470
      8  C          6.5780   -0.9920    0.1900 C.2     1  UNL1        0.0040
      9  C          5.8240    1.2010   -0.2280 C.2     1  UNL1        0.0040
     10  C          6.0680   -0.9340    1.4670 C.2     1  UNL1        0.0000
     11  C          5.3140    1.2580    1.0510 C.2     1  UNL1        0.0000
     12  C          5.4230    0.1980    1.9220 C.2     1  UNL1        0.0000
@<TRIPOS>BOND
     1     5     4    1
     2     4     2    1
     3     3     2    2
     4     2     1    1
     5     6     1    1
     6     6     7    1
     7     7     9    2
     8     7     8    1
     9     9    11    1
    10     8    10    2
    11    11    12    2
    12    10    12    1
