@<TRIPOS>MOLECULE
/home/cewinharhar/GITHUB/reincatalyze/data/processed/docking_pred/2023-Apr-25-2248_maxeplen10_maxtrainstep1000_exh16_gamma099_lrac3e-4_lrcr1e-3/c61eb663c2c3330cf201d691d278f59eb7eebd68_ligand_2.pdbqt
 12 12 0 0 0
SMALL
GASTEIGER

@<TRIPOS>ATOM
      1  C          5.0330    1.7630    0.7230 C.3     1  UNL1        0.1270
      2  C          4.4940    1.1010    1.9240 C.2     1  UNL1        0.3030
      3  O          5.1750    0.1980    2.4830 O.2     1  UNL1       -0.2520
      4  O          3.2480    1.4410    2.4710 O.3     1  UNL1       -0.4810
      5  H          2.4130    1.2170    1.9470 H       1  UNL1        0.2960
      6  C          6.5490    1.8450    0.7430 C.3     1  UNL1        0.0470
      7  C          7.1410    1.0280   -0.3470 C.2     1  UNL1       -0.0470
      8  C          8.4710    1.1880   -0.7090 C.2     1  UNL1        0.0040
      9  C          6.4160    0.0880   -1.0570 C.2     1  UNL1        0.0040
     10  C          9.0470    0.4540   -1.7210 C.2     1  UNL1        0.0000
     11  C          6.9940   -0.6460   -2.0710 C.2     1  UNL1        0.0000
     12  C          8.3140   -0.4810   -2.4240 C.2     1  UNL1        0.0000
@<TRIPOS>BOND
     1    12    11    2
     2    12    10    1
     3    11     9    1
     4    10     8    2
     5     9     7    2
     6     8     7    1
     7     7     6    1
     8     1     6    1
     9     1     2    1
    10     2     4    1
    11     2     3    2
    12     5     4    1
