@<TRIPOS>MOLECULE
/home/cewinharhar/GITHUB/reincatalyze/data/processed/docking_pred/2023-Apr-25-2248_maxeplen10_maxtrainstep1000_exh16_gamma099_lrac3e-4_lrcr1e-3/c8a10dea28a77dd5a54e6b3bff917c6d12aef46d_ligand_2.pdbqt
 12 12 0 0 0
SMALL
GASTEIGER

@<TRIPOS>ATOM
      1  C          5.0380    1.7820    0.7610 C.3     1  UNL1        0.1270
      2  C          4.4640    1.1140    1.9420 C.2     1  UNL1        0.3030
      3  O          5.1170    0.1900    2.5000 O.2     1  UNL1       -0.2520
      4  O          3.2150    1.4700    2.4700 O.3     1  UNL1       -0.4810
      5  H          3.0760    1.4020    3.4690 H       1  UNL1        0.2960
      6  C          6.5550    1.8170    0.8010 C.3     1  UNL1        0.0470
      7  C          7.1360    1.0200   -0.3120 C.2     1  UNL1       -0.0470
      8  C          8.4460    1.2250   -0.7200 C.2     1  UNL1        0.0040
      9  C          6.4170    0.0580   -0.9970 C.2     1  UNL1        0.0040
     10  C          9.0090    0.5120   -1.7530 C.2     1  UNL1        0.0000
     11  C          6.9830   -0.6560   -2.0320 C.2     1  UNL1        0.0000
     12  C          8.2830   -0.4460   -2.4320 C.2     1  UNL1        0.0000
@<TRIPOS>BOND
     1    12    11    2
     2    12    10    1
     3    11     9    1
     4    10     8    2
     5     9     7    2
     6     8     7    1
     7     7     6    1
     8     1     6    1
     9     1     2    1
    10     2     4    1
    11     2     3    2
    12     4     5    1
