@<TRIPOS>MOLECULE
/home/cewinharhar/GITHUB/reincatalyze/data/processed/docking_pred/2023-Apr-25-2248_maxeplen10_maxtrainstep1000_exh16_gamma099_lrac3e-4_lrcr1e-3/c8a10dea28a77dd5a54e6b3bff917c6d12aef46d_ligand_2.pdbqt
 12 12 0 0 0
SMALL
GASTEIGER

@<TRIPOS>ATOM
      1  C          8.3710   -0.6180   -2.1620 C.3     1  UNL1        0.1270
      2  C          8.3860   -1.8920   -2.9030 C.2     1  UNL1        0.3030
      3  O          7.2910   -2.4140   -3.2450 O.2     1  UNL1       -0.2520
      4  O          9.5790   -2.5450   -3.2420 O.3     1  UNL1       -0.4810
      5  H          9.6230   -3.5510   -3.1500 H       1  UNL1        0.2960
      6  C          6.9930    0.0190   -2.1440 C.3     1  UNL1        0.0470
      7  C          6.4630    0.1040   -0.7580 C.2     1  UNL1       -0.0470
      8  C          6.5930   -0.9660    0.1160 C.2     1  UNL1        0.0040
      9  C          5.8160    1.2250   -0.2720 C.2     1  UNL1        0.0040
     10  C          6.1040   -0.9220    1.4010 C.2     1  UNL1        0.0000
     11  C          5.3270    1.2670    1.0160 C.2     1  UNL1        0.0000
     12  C          5.4580    0.2010    1.8770 C.2     1  UNL1        0.0000
@<TRIPOS>BOND
     1     3     2    2
     2     4     5    1
     3     4     2    1
     4     2     1    1
     5     1     6    1
     6     6     7    1
     7     7     9    2
     8     7     8    1
     9     9    11    1
    10     8    10    2
    11    11    12    2
    12    10    12    1
