MODEL 1
REMARK VINA RESULT:      -7.2      0.000      0.000
REMARK SMILES O=C(O)CCc1ccccc1
REMARK SMILES IDX 4 1 2 2 1 3 3 4 5 6 6 7 7 8 11 9 8 10 10 11 9 12
REMARK H PARENT 3 5
REMARK Flexibility Score: inf
ROOT
ATOM      1  C   UNL     1       8.419  -0.638  -2.148  1.00  0.00     0.127 C 
ENDROOT
BRANCH   1   2
ATOM      2  C   UNL     1       8.423  -1.908  -2.895  1.00  0.00     0.303 C 
ATOM      3  O   UNL     1       7.322  -2.434  -3.214  1.00  0.00    -0.252 OA
BRANCH   2   4
ATOM      4  O   UNL     1       9.611  -2.554  -3.265  1.00  0.00    -0.481 OA
ATOM      5  H   UNL     1       9.677  -2.950  -4.193  1.00  0.00     0.296 HD
ENDBRANCH   2   4
ENDBRANCH   1   2
BRANCH   1   6
ATOM      6  C   UNL     1       7.051   0.020  -2.141  1.00  0.00     0.047 C 
BRANCH   6   7
ATOM      7  C   UNL     1       6.497   0.083  -0.763  1.00  0.00    -0.047 A 
ATOM      8  C   UNL     1       5.825   1.214  -0.322  1.00  0.00     0.004 A 
ATOM      9  C   UNL     1       6.626  -0.953   0.144  1.00  0.00     0.004 A 
ATOM     10  C   UNL     1       5.310   1.308   0.951  1.00  0.00     0.000 A 
ATOM     11  C   UNL     1       6.110  -0.858   1.418  1.00  0.00     0.000 A 
ATOM     12  C   UNL     1       5.445   0.268   1.849  1.00  0.00     0.000 A 
ENDBRANCH   6   7
ENDBRANCH   1   6
TORSDOF 4
ENDMDL
MODEL 2
REMARK VINA RESULT:      -7.2      0.056      1.421
REMARK SMILES O=C(O)CCc1ccccc1
REMARK SMILES IDX 4 1 2 2 1 3 3 4 5 6 6 7 7 8 11 9 8 10 10 11 9 12
REMARK H PARENT 3 5
REMARK Flexibility Score: inf
ROOT
ATOM      1  C   UNL     1       8.371  -0.618  -2.162  1.00  0.00     0.127 C 
ENDROOT
BRANCH   1   2
ATOM      2  C   UNL     1       8.386  -1.892  -2.903  1.00  0.00     0.303 C 
ATOM      3  O   UNL     1       7.291  -2.414  -3.245  1.00  0.00    -0.252 OA
BRANCH   2   4
ATOM      4  O   UNL     1       9.579  -2.545  -3.242  1.00  0.00    -0.481 OA
ATOM      5  H   UNL     1       9.623  -3.551  -3.150  1.00  0.00     0.296 HD
ENDBRANCH   2   4
ENDBRANCH   1   2
BRANCH   1   6
ATOM      6  C   UNL     1       6.993   0.019  -2.144  1.00  0.00     0.047 C 
BRANCH   6   7
ATOM      7  C   UNL     1       6.463   0.104  -0.758  1.00  0.00    -0.047 A 
ATOM      8  C   UNL     1       6.593  -0.966   0.116  1.00  0.00     0.004 A 
ATOM      9  C   UNL     1       5.816   1.225  -0.272  1.00  0.00     0.004 A 
ATOM     10  C   UNL     1       6.104  -0.922   1.401  1.00  0.00     0.000 A 
ATOM     11  C   UNL     1       5.327   1.267   1.016  1.00  0.00     0.000 A 
ATOM     12  C   UNL     1       5.458   0.201   1.877  1.00  0.00     0.000 A 
ENDBRANCH   6   7
ENDBRANCH   1   6
TORSDOF 4
ENDMDL
MODEL 3
REMARK VINA RESULT:      -7.2      0.676      1.565
REMARK SMILES O=C(O)CCc1ccccc1
REMARK SMILES IDX 4 1 2 2 1 3 3 4 5 6 6 7 7 8 11 9 8 10 10 11 9 12
REMARK H PARENT 3 5
REMARK Flexibility Score: inf
ROOT
ATOM      1  C   UNL     1       8.267  -1.002  -1.784  1.00  0.00     0.127 C 
ENDROOT
BRANCH   1   2
ATOM      2  C   UNL     1       8.390  -2.043  -2.819  1.00  0.00     0.303 C 
ATOM      3  O   UNL     1       9.529  -2.521  -3.075  1.00  0.00    -0.252 OA
BRANCH   2   4
ATOM      4  O   UNL     1       7.282  -2.525  -3.531  1.00  0.00    -0.481 OA
ATOM      5  H   UNL     1       6.816  -1.904  -4.179  1.00  0.00     0.296 HD
ENDBRANCH   2   4
ENDBRANCH   1   2
BRANCH   1   6
ATOM      6  C   UNL     1       7.464  -1.476  -0.586  1.00  0.00     0.047 C 
BRANCH   6   7
ATOM      7  C   UNL     1       6.604  -0.386  -0.056  1.00  0.00    -0.047 A 
ATOM      8  C   UNL     1       6.289   0.713  -0.843  1.00  0.00     0.004 A 
ATOM      9  C   UNL     1       6.086  -0.397   1.226  1.00  0.00     0.004 A 
ATOM     10  C   UNL     1       5.504   1.744  -0.378  1.00  0.00     0.000 A 
ATOM     11  C   UNL     1       5.300   0.636   1.690  1.00  0.00     0.000 A 
ATOM     12  C   UNL     1       4.994   1.724   0.904  1.00  0.00     0.000 A 
ENDBRANCH   6   7
ENDBRANCH   1   6
TORSDOF 4
ENDMDL
MODEL 4
REMARK VINA RESULT:      -6.8      3.327      5.157
REMARK SMILES O=C(O)CCc1ccccc1
REMARK SMILES IDX 4 1 2 2 1 3 3 4 5 6 6 7 7 8 11 9 8 10 10 11 9 12
REMARK H PARENT 3 5
REMARK Flexibility Score: inf
ROOT
ATOM      1  C   UNL     1       5.038   1.782   0.761  1.00  0.00     0.127 C 
ENDROOT
BRANCH   1   2
ATOM      2  C   UNL     1       4.464   1.114   1.942  1.00  0.00     0.303 C 
ATOM      3  O   UNL     1       5.117   0.190   2.500  1.00  0.00    -0.252 OA
BRANCH   2   4
ATOM      4  O   UNL     1       3.215   1.470   2.470  1.00  0.00    -0.481 OA
ATOM      5  H   UNL     1       3.076   1.402   3.469  1.00  0.00     0.296 HD
ENDBRANCH   2   4
ENDBRANCH   1   2
BRANCH   1   6
ATOM      6  C   UNL     1       6.555   1.817   0.801  1.00  0.00     0.047 C 
BRANCH   6   7
ATOM      7  C   UNL     1       7.136   1.020  -0.312  1.00  0.00    -0.047 A 
ATOM      8  C   UNL     1       8.446   1.225  -0.720  1.00  0.00     0.004 A 
ATOM      9  C   UNL     1       6.417   0.058  -0.997  1.00  0.00     0.004 A 
ATOM     10  C   UNL     1       9.009   0.512  -1.753  1.00  0.00     0.000 A 
ATOM     11  C   UNL     1       6.983  -0.656  -2.032  1.00  0.00     0.000 A 
ATOM     12  C   UNL     1       8.283  -0.446  -2.432  1.00  0.00     0.000 A 
ENDBRANCH   6   7
ENDBRANCH   1   6
TORSDOF 4
ENDMDL
MODEL 5
REMARK VINA RESULT:      -6.6      2.006      3.067
REMARK SMILES O=C(O)CCc1ccccc1
REMARK SMILES IDX 4 1 2 2 1 3 3 4 5 6 6 7 7 8 11 9 8 10 10 11 9 12
REMARK H PARENT 3 5
REMARK Flexibility Score: inf
ROOT
ATOM      1  C   UNL     1       8.289  -1.758   1.217  1.00  0.00     0.127 C 
ENDROOT
BRANCH   1   2
ATOM      2  C   UNL     1       8.695  -2.977   0.495  1.00  0.00     0.303 C 
ATOM      3  O   UNL     1       9.450  -3.807   1.071  1.00  0.00    -0.252 OA
BRANCH   2   4
ATOM      4  O   UNL     1       8.268  -3.248  -0.813  1.00  0.00    -0.481 OA
ATOM      5  H   UNL     1       7.352  -3.653  -0.949  1.00  0.00     0.296 HD
ENDBRANCH   2   4
ENDBRANCH   1   2
BRANCH   1   6
ATOM      6  C   UNL     1       6.786  -1.684   1.419  1.00  0.00     0.047 C 
BRANCH   6   7
ATOM      7  C   UNL     1       6.238  -0.411   0.882  1.00  0.00    -0.047 A 
ATOM      8  C   UNL     1       6.500  -0.023  -0.425  1.00  0.00     0.004 A 
ATOM      9  C   UNL     1       5.462   0.448   1.638  1.00  0.00     0.004 A 
ATOM     10  C   UNL     1       6.016   1.154  -0.948  1.00  0.00     0.000 A 
ATOM     11  C   UNL     1       4.978   1.627   1.112  1.00  0.00     0.000 A 
ATOM     12  C   UNL     1       5.243   2.005  -0.184  1.00  0.00     0.000 A 
ENDBRANCH   6   7
ENDBRANCH   1   6
TORSDOF 4
ENDMDL
