@<TRIPOS>MOLECULE
/home/cewinharhar/GITHUB/reincatalyze/data/processed/docking_pred/2023-Apr-25-2248_maxeplen10_maxtrainstep1000_exh16_gamma099_lrac3e-4_lrcr1e-3/c8a10dea28a77dd5a54e6b3bff917c6d12aef46d_ligand_2.pdbqt
 12 12 0 0 0
SMALL
GASTEIGER

@<TRIPOS>ATOM
      1  C          8.2890   -1.7580    1.2170 C.3     1  UNL1        0.1270
      2  C          8.6950   -2.9770    0.4950 C.2     1  UNL1        0.3030
      3  O          9.4500   -3.8070    1.0710 O.2     1  UNL1       -0.2520
      4  O          8.2680   -3.2480   -0.8130 O.3     1  UNL1       -0.4810
      5  H          7.3520   -3.6530   -0.9490 H       1  UNL1        0.2960
      6  C          6.7860   -1.6840    1.4190 C.3     1  UNL1        0.0470
      7  C          6.2380   -0.4110    0.8820 C.2     1  UNL1       -0.0470
      8  C          6.5000   -0.0230   -0.4250 C.2     1  UNL1        0.0040
      9  C          5.4620    0.4480    1.6380 C.2     1  UNL1        0.0040
     10  C          6.0160    1.1540   -0.9480 C.2     1  UNL1        0.0000
     11  C          4.9780    1.6270    1.1120 C.2     1  UNL1        0.0000
     12  C          5.2430    2.0050   -0.1840 C.2     1  UNL1        0.0000
@<TRIPOS>BOND
     1     5     4    1
     2    10     8    1
     3    10    12    2
     4     4     2    1
     5     8     7    2
     6    12    11    1
     7     2     3    2
     8     2     1    1
     9     7     6    1
    10     7     9    1
    11    11     9    2
    12     1     6    1
