@<TRIPOS>MOLECULE
/home/cewinharhar/GITHUB/reincatalyze/data/processed/docking_pred/2023-Apr-25-2248_maxeplen10_maxtrainstep1000_exh16_gamma099_lrac3e-4_lrcr1e-3/c8a10dea28a77dd5a54e6b3bff917c6d12aef46d_ligand_2.pdbqt
 12 12 0 0 0
SMALL
GASTEIGER

@<TRIPOS>ATOM
      1  C          8.4190   -0.6380   -2.1480 C.3     1  UNL1        0.1270
      2  C          8.4230   -1.9080   -2.8950 C.2     1  UNL1        0.3030
      3  O          7.3220   -2.4340   -3.2140 O.2     1  UNL1       -0.2520
      4  O          9.6110   -2.5540   -3.2650 O.3     1  UNL1       -0.4810
      5  H          9.6770   -2.9500   -4.1930 H       1  UNL1        0.2960
      6  C          7.0510    0.0200   -2.1410 C.3     1  UNL1        0.0470
      7  C          6.4970    0.0830   -0.7630 C.2     1  UNL1       -0.0470
      8  C          5.8250    1.2140   -0.3220 C.2     1  UNL1        0.0040
      9  C          6.6260   -0.9530    0.1440 C.2     1  UNL1        0.0040
     10  C          5.3100    1.3080    0.9510 C.2     1  UNL1        0.0000
     11  C          6.1100   -0.8580    1.4180 C.2     1  UNL1        0.0000
     12  C          5.4450    0.2680    1.8490 C.2     1  UNL1        0.0000
@<TRIPOS>BOND
     1     5     4    1
     2     4     2    1
     3     3     2    2
     4     2     1    1
     5     1     6    1
     6     6     7    1
     7     7     8    2
     8     7     9    1
     9     8    10    1
    10     9    11    2
    11    10    12    2
    12    11    12    1
