@<TRIPOS>MOLECULE
/home/cewinharhar/GITHUB/reincatalyze/data/processed/docking_pred/2023-Apr-25-2248_maxeplen10_maxtrainstep1000_exh16_gamma099_lrac3e-4_lrcr1e-3/c8a10dea28a77dd5a54e6b3bff917c6d12aef46d_ligand_2.pdbqt
 12 12 0 0 0
SMALL
GASTEIGER

@<TRIPOS>ATOM
      1  C          8.2670   -1.0020   -1.7840 C.3     1  UNL1        0.1270
      2  C          8.3900   -2.0430   -2.8190 C.2     1  UNL1        0.3030
      3  O          9.5290   -2.5210   -3.0750 O.2     1  UNL1       -0.2520
      4  O          7.2820   -2.5250   -3.5310 O.3     1  UNL1       -0.4810
      5  H          6.8160   -1.9040   -4.1790 H       1  UNL1        0.2960
      6  C          7.4640   -1.4760   -0.5860 C.3     1  UNL1        0.0470
      7  C          6.6040   -0.3860   -0.0560 C.2     1  UNL1       -0.0470
      8  C          6.2890    0.7130   -0.8430 C.2     1  UNL1        0.0040
      9  C          6.0860   -0.3970    1.2260 C.2     1  UNL1        0.0040
     10  C          5.5040    1.7440   -0.3780 C.2     1  UNL1        0.0000
     11  C          5.3000    0.6360    1.6900 C.2     1  UNL1        0.0000
     12  C          4.9940    1.7240    0.9040 C.2     1  UNL1        0.0000
@<TRIPOS>BOND
     1     5     4    1
     2     4     2    1
     3     3     2    2
     4     2     1    1
     5     1     6    1
     6     8    10    1
     7     8     7    2
     8     6     7    1
     9    10    12    2
    10     7     9    1
    11    12    11    1
    12     9    11    2
