@<TRIPOS>MOLECULE
/home/cewinharhar/GITHUB/reincatalyze/data/processed/docking_pred/2023-Apr-25-2248_maxeplen10_maxtrainstep1000_exh16_gamma099_lrac3e-4_lrcr1e-3/ca2511eb0ea692a115cf18c67ef7ccdfaa736476_ligand_2.pdbqt
 12 12 0 0 0
SMALL
GASTEIGER

@<TRIPOS>ATOM
      1  C          5.0070    1.7830    0.7510 C.3     1  UNL1        0.1270
      2  C          4.4580    1.1010    1.9360 C.2     1  UNL1        0.3030
      3  O          5.1240    0.1750    2.4740 O.2     1  UNL1       -0.2520
      4  O          3.2170    1.4480    2.4910 O.3     1  UNL1       -0.4810
      5  H          2.8070    0.8330    3.1800 H       1  UNL1        0.2960
      6  C          6.5220    1.8630    0.7860 C.3     1  UNL1        0.0470
      7  C          7.1240    1.0610   -0.3120 C.2     1  UNL1       -0.0470
      8  C          8.4550    1.2300   -0.6640 C.2     1  UNL1        0.0040
      9  C          6.4050    0.1290   -1.0390 C.2     1  UNL1        0.0040
     10  C          9.0380    0.5110   -1.6830 C.2     1  UNL1        0.0000
     11  C          6.9910   -0.5900   -2.0580 C.2     1  UNL1        0.0000
     12  C          8.3120   -0.4160   -2.4020 C.2     1  UNL1        0.0000
@<TRIPOS>BOND
     1    12    11    2
     2    12    10    1
     3    11     9    1
     4    10     8    2
     5     9     7    2
     6     8     7    1
     7     7     6    1
     8     1     6    1
     9     1     2    1
    10     2     3    2
    11     2     4    1
    12     4     5    1
