MODEL 1
REMARK VINA RESULT:      -7.3      0.000      0.000
REMARK SMILES O=C(O)CCc1ccccc1
REMARK SMILES IDX 4 1 2 2 1 3 3 4 5 6 6 7 7 8 11 9 8 10 10 11 9 12
REMARK H PARENT 3 5
REMARK Flexibility Score: inf
ROOT
ATOM      1  C   UNL     1       8.396  -0.651  -2.136  1.00  0.00     0.127 C 
ENDROOT
BRANCH   1   2
ATOM      2  C   UNL     1       8.426  -1.921  -2.884  1.00  0.00     0.303 C 
ATOM      3  O   UNL     1       9.526  -2.522  -3.024  1.00  0.00    -0.252 OA
BRANCH   2   4
ATOM      4  O   UNL     1       7.273  -2.486  -3.446  1.00  0.00    -0.481 OA
ATOM      5  H   UNL     1       7.374  -3.285  -4.058  1.00  0.00     0.296 HD
ENDBRANCH   2   4
ENDBRANCH   1   2
BRANCH   1   6
ATOM      6  C   UNL     1       7.012  -0.027  -2.122  1.00  0.00     0.047 C 
BRANCH   6   7
ATOM      7  C   UNL     1       6.477   0.054  -0.738  1.00  0.00    -0.047 A 
ATOM      8  C   UNL     1       6.613  -1.014   0.137  1.00  0.00     0.004 A 
ATOM      9  C   UNL     1       5.819   1.170  -0.254  1.00  0.00     0.004 A 
ATOM     10  C   UNL     1       6.120  -0.975   1.421  1.00  0.00     0.000 A 
ATOM     11  C   UNL     1       5.326   1.208   1.033  1.00  0.00     0.000 A 
ATOM     12  C   UNL     1       5.464   0.144   1.894  1.00  0.00     0.000 A 
ENDBRANCH   6   7
ENDBRANCH   1   6
TORSDOF 4
ENDMDL
MODEL 2
REMARK VINA RESULT:      -7.3      0.049      1.421
REMARK SMILES O=C(O)CCc1ccccc1
REMARK SMILES IDX 4 1 2 2 1 3 3 4 5 6 6 7 7 8 11 9 8 10 10 11 9 12
REMARK H PARENT 3 5
REMARK Flexibility Score: inf
ROOT
ATOM      1  C   UNL     1       8.406  -0.616  -2.193  1.00  0.00     0.127 C 
ENDROOT
BRANCH   1   2
ATOM      2  C   UNL     1       8.435  -1.900  -2.915  1.00  0.00     0.303 C 
ATOM      3  O   UNL     1       9.539  -2.490  -3.071  1.00  0.00    -0.252 OA
BRANCH   2   4
ATOM      4  O   UNL     1       7.275  -2.492  -3.436  1.00  0.00    -0.481 OA
ATOM      5  H   UNL     1       7.250  -2.723  -4.420  1.00  0.00     0.296 HD
ENDBRANCH   2   4
ENDBRANCH   1   2
BRANCH   1   6
ATOM      6  C   UNL     1       7.015  -0.009  -2.159  1.00  0.00     0.047 C 
BRANCH   6   7
ATOM      7  C   UNL     1       6.489   0.039  -0.770  1.00  0.00    -0.047 A 
ATOM      8  C   UNL     1       5.837   1.170  -0.298  1.00  0.00     0.004 A 
ATOM      9  C   UNL     1       6.623  -1.013   0.118  1.00  0.00     0.004 A 
ATOM     10  C   UNL     1       5.348   1.249   0.986  1.00  0.00     0.000 A 
ATOM     11  C   UNL     1       6.132  -0.931   1.404  1.00  0.00     0.000 A 
ATOM     12  C   UNL     1       5.489   0.194   1.865  1.00  0.00     0.000 A 
ENDBRANCH   6   7
ENDBRANCH   1   6
TORSDOF 4
ENDMDL
MODEL 3
REMARK VINA RESULT:      -7.2      0.687      1.222
REMARK SMILES O=C(O)CCc1ccccc1
REMARK SMILES IDX 4 1 2 2 1 3 3 4 5 6 6 7 7 8 11 9 8 10 10 11 9 12
REMARK H PARENT 3 5
REMARK Flexibility Score: inf
ROOT
ATOM      1  C   UNL     1       8.223  -0.925  -1.888  1.00  0.00     0.127 C 
ENDROOT
BRANCH   1   2
ATOM      2  C   UNL     1       8.351  -2.022  -2.864  1.00  0.00     0.303 C 
ATOM      3  O   UNL     1       9.492  -2.509  -3.091  1.00  0.00    -0.252 OA
BRANCH   2   4
ATOM      4  O   UNL     1       7.246  -2.545  -3.550  1.00  0.00    -0.481 OA
ATOM      5  H   UNL     1       7.075  -3.540  -3.504  1.00  0.00     0.296 HD
ENDBRANCH   2   4
ENDBRANCH   1   2
BRANCH   1   6
ATOM      6  C   UNL     1       7.538  -1.373  -0.609  1.00  0.00     0.047 C 
BRANCH   6   7
ATOM      7  C   UNL     1       6.649  -0.306  -0.080  1.00  0.00    -0.047 A 
ATOM      8  C   UNL     1       6.148  -0.378   1.212  1.00  0.00     0.004 A 
ATOM      9  C   UNL     1       6.268   0.791  -0.830  1.00  0.00     0.004 A 
ATOM     10  C   UNL     1       5.315   0.588   1.728  1.00  0.00     0.000 A 
ATOM     11  C   UNL     1       5.432   1.758  -0.313  1.00  0.00     0.000 A 
ATOM     12  C   UNL     1       4.939   1.679   0.970  1.00  0.00     0.000 A 
ENDBRANCH   6   7
ENDBRANCH   1   6
TORSDOF 4
ENDMDL
MODEL 4
REMARK VINA RESULT:      -6.8      3.403      5.096
REMARK SMILES O=C(O)CCc1ccccc1
REMARK SMILES IDX 4 1 2 2 1 3 3 4 5 6 6 7 7 8 11 9 8 10 10 11 9 12
REMARK H PARENT 3 5
REMARK Flexibility Score: inf
ROOT
ATOM      1  C   UNL     1       5.007   1.783   0.751  1.00  0.00     0.127 C 
ENDROOT
BRANCH   1   2
ATOM      2  C   UNL     1       4.458   1.101   1.936  1.00  0.00     0.303 C 
ATOM      3  O   UNL     1       5.124   0.175   2.474  1.00  0.00    -0.252 OA
BRANCH   2   4
ATOM      4  O   UNL     1       3.217   1.448   2.491  1.00  0.00    -0.481 OA
ATOM      5  H   UNL     1       2.807   0.833   3.180  1.00  0.00     0.296 HD
ENDBRANCH   2   4
ENDBRANCH   1   2
BRANCH   1   6
ATOM      6  C   UNL     1       6.522   1.863   0.786  1.00  0.00     0.047 C 
BRANCH   6   7
ATOM      7  C   UNL     1       7.124   1.061  -0.312  1.00  0.00    -0.047 A 
ATOM      8  C   UNL     1       8.455   1.230  -0.664  1.00  0.00     0.004 A 
ATOM      9  C   UNL     1       6.405   0.129  -1.039  1.00  0.00     0.004 A 
ATOM     10  C   UNL     1       9.038   0.511  -1.683  1.00  0.00     0.000 A 
ATOM     11  C   UNL     1       6.991  -0.590  -2.058  1.00  0.00     0.000 A 
ATOM     12  C   UNL     1       8.312  -0.416  -2.402  1.00  0.00     0.000 A 
ENDBRANCH   6   7
ENDBRANCH   1   6
TORSDOF 4
ENDMDL
MODEL 5
REMARK VINA RESULT:      -6.6      3.814      4.961
REMARK SMILES O=C(O)CCc1ccccc1
REMARK SMILES IDX 4 1 2 2 1 3 3 4 5 6 6 7 7 8 11 9 8 10 10 11 9 12
REMARK H PARENT 3 5
REMARK Flexibility Score: inf
ROOT
ATOM      1  C   UNL     1       5.622   2.989  -0.018  1.00  0.00     0.127 C 
ENDROOT
BRANCH   1   2
ATOM      2  C   UNL     1       6.359   3.950   0.823  1.00  0.00     0.303 C 
ATOM      3  O   UNL     1       7.138   4.773   0.271  1.00  0.00    -0.252 OA
BRANCH   2   4
ATOM      4  O   UNL     1       6.221   3.981   2.218  1.00  0.00    -0.481 OA
ATOM      5  H   UNL     1       5.360   4.337   2.611  1.00  0.00     0.296 HD
ENDBRANCH   2   4
ENDBRANCH   1   2
BRANCH   1   6
ATOM      6  C   UNL     1       4.868   1.964   0.809  1.00  0.00     0.047 C 
BRANCH   6   7
ATOM      7  C   UNL     1       5.634   0.694   0.912  1.00  0.00    -0.047 A 
ATOM      8  C   UNL     1       6.356   0.214  -0.171  1.00  0.00     0.004 A 
ATOM      9  C   UNL     1       5.663  -0.071   2.063  1.00  0.00     0.004 A 
ATOM     10  C   UNL     1       7.066  -0.963  -0.111  1.00  0.00     0.000 A 
ATOM     11  C   UNL     1       6.376  -1.250   2.122  1.00  0.00     0.000 A 
ATOM     12  C   UNL     1       7.089  -1.720   1.043  1.00  0.00     0.000 A 
ENDBRANCH   6   7
ENDBRANCH   1   6
TORSDOF 4
ENDMDL
