@<TRIPOS>MOLECULE
/home/cewinharhar/GITHUB/reincatalyze/data/processed/docking_pred/2023-Apr-25-2248_maxeplen10_maxtrainstep1000_exh16_gamma099_lrac3e-4_lrcr1e-3/ca2511eb0ea692a115cf18c67ef7ccdfaa736476_ligand_2.pdbqt
 12 12 0 0 0
SMALL
GASTEIGER

@<TRIPOS>ATOM
      1  C          8.2230   -0.9250   -1.8880 C.3     1  UNL1        0.1270
      2  C          8.3510   -2.0220   -2.8640 C.2     1  UNL1        0.3030
      3  O          9.4920   -2.5090   -3.0910 O.2     1  UNL1       -0.2520
      4  O          7.2460   -2.5450   -3.5500 O.3     1  UNL1       -0.4810
      5  H          7.0750   -3.5400   -3.5040 H       1  UNL1        0.2960
      6  C          7.5380   -1.3730   -0.6090 C.3     1  UNL1        0.0470
      7  C          6.6490   -0.3060   -0.0800 C.2     1  UNL1       -0.0470
      8  C          6.1480   -0.3780    1.2120 C.2     1  UNL1        0.0040
      9  C          6.2680    0.7910   -0.8300 C.2     1  UNL1        0.0040
     10  C          5.3150    0.5880    1.7280 C.2     1  UNL1        0.0000
     11  C          5.4320    1.7580   -0.3130 C.2     1  UNL1        0.0000
     12  C          4.9390    1.6790    0.9700 C.2     1  UNL1        0.0000
@<TRIPOS>BOND
     1     4     5    1
     2     4     2    1
     3     3     2    2
     4     2     1    1
     5     1     6    1
     6     9    11    1
     7     9     7    2
     8     6     7    1
     9    11    12    2
    10     7     8    1
    11    12    10    1
    12     8    10    2
