@<TRIPOS>MOLECULE
/home/cewinharhar/GITHUB/reincatalyze/data/processed/docking_pred/2023-Apr-25-2248_maxeplen10_maxtrainstep1000_exh16_gamma099_lrac3e-4_lrcr1e-3/ca2511eb0ea692a115cf18c67ef7ccdfaa736476_ligand_2.pdbqt
 12 12 0 0 0
SMALL
GASTEIGER

@<TRIPOS>ATOM
      1  C          5.6220    2.9890   -0.0180 C.3     1  UNL1        0.1270
      2  C          6.3590    3.9500    0.8230 C.2     1  UNL1        0.3030
      3  O          7.1380    4.7730    0.2710 O.2     1  UNL1       -0.2520
      4  O          6.2210    3.9810    2.2180 O.3     1  UNL1       -0.4810
      5  H          5.3600    4.3370    2.6110 H       1  UNL1        0.2960
      6  C          4.8680    1.9640    0.8090 C.3     1  UNL1        0.0470
      7  C          5.6340    0.6940    0.9120 C.2     1  UNL1       -0.0470
      8  C          6.3560    0.2140   -0.1710 C.2     1  UNL1        0.0040
      9  C          5.6630   -0.0710    2.0630 C.2     1  UNL1        0.0040
     10  C          7.0660   -0.9630   -0.1110 C.2     1  UNL1        0.0000
     11  C          6.3760   -1.2500    2.1220 C.2     1  UNL1        0.0000
     12  C          7.0890   -1.7200    1.0430 C.2     1  UNL1        0.0000
@<TRIPOS>BOND
     1     8    10    1
     2     8     7    2
     3    10    12    2
     4     1     6    1
     5     1     2    1
     6     3     2    2
     7     6     7    1
     8     2     4    1
     9     7     9    1
    10    12    11    1
    11     9    11    2
    12     4     5    1
