@<TRIPOS>MOLECULE
/home/cewinharhar/GITHUB/reincatalyze/data/processed/docking_pred/2023-Apr-25-2248_maxeplen10_maxtrainstep1000_exh16_gamma099_lrac3e-4_lrcr1e-3/ca2511eb0ea692a115cf18c67ef7ccdfaa736476_ligand_2.pdbqt
 12 12 0 0 0
SMALL
GASTEIGER

@<TRIPOS>ATOM
      1  C          8.4060   -0.6160   -2.1930 C.3     1  UNL1        0.1270
      2  C          8.4350   -1.9000   -2.9150 C.2     1  UNL1        0.3030
      3  O          9.5390   -2.4900   -3.0710 O.2     1  UNL1       -0.2520
      4  O          7.2750   -2.4920   -3.4360 O.3     1  UNL1       -0.4810
      5  H          7.2500   -2.7230   -4.4200 H       1  UNL1        0.2960
      6  C          7.0150   -0.0090   -2.1590 C.3     1  UNL1        0.0470
      7  C          6.4890    0.0390   -0.7700 C.2     1  UNL1       -0.0470
      8  C          5.8370    1.1700   -0.2980 C.2     1  UNL1        0.0040
      9  C          6.6230   -1.0130    0.1180 C.2     1  UNL1        0.0040
     10  C          5.3480    1.2490    0.9860 C.2     1  UNL1        0.0000
     11  C          6.1320   -0.9310    1.4040 C.2     1  UNL1        0.0000
     12  C          5.4890    0.1940    1.8650 C.2     1  UNL1        0.0000
@<TRIPOS>BOND
     1     5     4    1
     2     4     2    1
     3     3     2    2
     4     2     1    1
     5     1     6    1
     6     6     7    1
     7     7     8    2
     8     7     9    1
     9     8    10    1
    10     9    11    2
    11    10    12    2
    12    11    12    1
