@<TRIPOS>MOLECULE
/home/cewinharhar/GITHUB/reincatalyze/data/processed/docking_pred/2023-Apr-25-2248_maxeplen10_maxtrainstep1000_exh16_gamma099_lrac3e-4_lrcr1e-3/ca2511eb0ea692a115cf18c67ef7ccdfaa736476_ligand_2.pdbqt
 12 12 0 0 0
SMALL
GASTEIGER

@<TRIPOS>ATOM
      1  C          8.3960   -0.6510   -2.1360 C.3     1  UNL1        0.1270
      2  C          8.4260   -1.9210   -2.8840 C.2     1  UNL1        0.3030
      3  O          9.5260   -2.5220   -3.0240 O.2     1  UNL1       -0.2520
      4  O          7.2730   -2.4860   -3.4460 O.3     1  UNL1       -0.4810
      5  H          7.3740   -3.2850   -4.0580 H       1  UNL1        0.2960
      6  C          7.0120   -0.0270   -2.1220 C.3     1  UNL1        0.0470
      7  C          6.4770    0.0540   -0.7380 C.2     1  UNL1       -0.0470
      8  C          6.6130   -1.0140    0.1370 C.2     1  UNL1        0.0040
      9  C          5.8190    1.1700   -0.2540 C.2     1  UNL1        0.0040
     10  C          6.1200   -0.9750    1.4210 C.2     1  UNL1        0.0000
     11  C          5.3260    1.2080    1.0330 C.2     1  UNL1        0.0000
     12  C          5.4640    0.1440    1.8940 C.2     1  UNL1        0.0000
@<TRIPOS>BOND
     1     5     4    1
     2     4     2    1
     3     3     2    2
     4     2     1    1
     5     1     6    1
     6     6     7    1
     7     7     9    2
     8     7     8    1
     9     9    11    1
    10     8    10    2
    11    11    12    2
    12    10    12    1
