@<TRIPOS>MOLECULE
/home/cewinharhar/GITHUB/reincatalyze/data/processed/docking_pred/2023-Apr-25-2248_maxeplen10_maxtrainstep1000_exh16_gamma099_lrac3e-4_lrcr1e-3/cb79d4b49cb2e7af28552c4e2a37cc688e9725fc_ligand_2.pdbqt
 12 12 0 0 0
SMALL
GASTEIGER

@<TRIPOS>ATOM
      1  C          8.4070   -0.6200   -2.1610 C.3     1  UNL1        0.1270
      2  C          8.4420   -1.8920   -2.9040 C.2     1  UNL1        0.3030
      3  O          9.5470   -2.4770   -3.0650 O.2     1  UNL1       -0.2520
      4  O          7.2850   -2.4770   -3.4400 O.3     1  UNL1       -0.4810
      5  H          7.3780   -3.0820   -4.2450 H       1  UNL1        0.2960
      6  C          7.0150   -0.0150   -2.1240 C.3     1  UNL1        0.0470
      7  C          6.4890    0.0260   -0.7350 C.2     1  UNL1       -0.0470
      8  C          5.8470    1.1590   -0.2540 C.2     1  UNL1        0.0040
      9  C          6.6150   -1.0330    0.1450 C.2     1  UNL1        0.0040
     10  C          5.3580    1.2320    1.0300 C.2     1  UNL1        0.0000
     11  C          6.1250   -0.9580    1.4310 C.2     1  UNL1        0.0000
     12  C          5.4900    0.1690    1.9010 C.2     1  UNL1        0.0000
@<TRIPOS>BOND
     1     5     4    1
     2     4     2    1
     3     3     2    2
     4     2     1    1
     5     1     6    1
     6     6     7    1
     7     7     8    2
     8     7     9    1
     9     8    10    1
    10     9    11    2
    11    10    12    2
    12    11    12    1
