@<TRIPOS>MOLECULE
/home/cewinharhar/GITHUB/reincatalyze/data/processed/docking_pred/2023-Apr-25-2248_maxeplen10_maxtrainstep1000_exh16_gamma099_lrac3e-4_lrcr1e-3/cb79d4b49cb2e7af28552c4e2a37cc688e9725fc_ligand_2.pdbqt
 12 12 0 0 0
SMALL
GASTEIGER

@<TRIPOS>ATOM
      1  C          4.9860    1.8050    0.7330 C.3     1  UNL1        0.1270
      2  C          4.4660    1.1190    1.9300 C.2     1  UNL1        0.3030
      3  O          5.1610    0.2140    2.4670 O.2     1  UNL1       -0.2520
      4  O          3.2230    1.4400    2.4950 O.3     1  UNL1       -0.4810
      5  H          2.5830    2.0130    1.9620 H       1  UNL1        0.2960
      6  C          6.4990    1.9270    0.7540 C.3     1  UNL1        0.0470
      7  C          7.1140    1.1170   -0.3300 C.2     1  UNL1       -0.0470
      8  C          8.4650    1.2340   -0.6220 C.2     1  UNL1        0.0040
      9  C          6.3890    0.2260   -1.1000 C.2     1  UNL1        0.0040
     10  C          9.0610    0.5050   -1.6250 C.2     1  UNL1        0.0000
     11  C          6.9880   -0.5030   -2.1050 C.2     1  UNL1        0.0000
     12  C          8.3290   -0.3810   -2.3900 C.2     1  UNL1        0.0000
@<TRIPOS>BOND
     1    12    11    2
     2    12    10    1
     3    11     9    1
     4    10     8    2
     5     9     7    2
     6     8     7    1
     7     7     6    1
     8     1     6    1
     9     1     2    1
    10     2     3    2
    11     2     4    1
    12     5     4    1
