@<TRIPOS>MOLECULE
/home/cewinharhar/GITHUB/reincatalyze/data/processed/docking_pred/2023-Apr-25-2248_maxeplen10_maxtrainstep1000_exh16_gamma099_lrac3e-4_lrcr1e-3/cb79d4b49cb2e7af28552c4e2a37cc688e9725fc_ligand_2.pdbqt
 12 12 0 0 0
SMALL
GASTEIGER

@<TRIPOS>ATOM
      1  C          5.4790    2.9070    0.1040 C.3     1  UNL1        0.1270
      2  C          6.2860    3.8640    0.8820 C.2     1  UNL1        0.3030
      3  O          6.9310    4.7590    0.2720 O.2     1  UNL1       -0.2520
      4  O          6.3600    3.8150    2.2820 O.3     1  UNL1       -0.4810
      5  H          7.2210    3.5040    2.7100 H       1  UNL1        0.2960
      6  C          4.8720    1.8240    0.9780 C.3     1  UNL1        0.0470
      7  C          5.7150    0.6000    0.9720 C.2     1  UNL1       -0.0470
      8  C          5.7490   -0.2410    2.0750 C.2     1  UNL1        0.0040
      9  C          6.5030    0.2400   -0.1050 C.2     1  UNL1        0.0040
     10  C          6.5270   -1.3760    2.1050 C.2     1  UNL1        0.0000
     11  C          7.2820   -0.8980   -0.0740 C.2     1  UNL1        0.0000
     12  C          7.3120   -1.7260    1.0250 C.2     1  UNL1        0.0000
@<TRIPOS>BOND
     1     9    11    1
     2     9     7    2
     3    11    12    2
     4     1     2    1
     5     1     6    1
     6     3     2    2
     7     2     4    1
     8     7     6    1
     9     7     8    1
    10    12    10    1
    11     8    10    2
    12     4     5    1
