MODEL 1
REMARK VINA RESULT:      -7.3      0.000      0.000
REMARK SMILES O=C(O)CCc1ccccc1
REMARK SMILES IDX 4 1 2 2 1 3 3 4 5 6 6 7 7 8 11 9 8 10 10 11 9 12
REMARK H PARENT 3 5
REMARK Flexibility Score: inf
ROOT
ATOM      1  C   UNL     1       8.407  -0.620  -2.161  1.00  0.00     0.127 C 
ENDROOT
BRANCH   1   2
ATOM      2  C   UNL     1       8.442  -1.892  -2.904  1.00  0.00     0.303 C 
ATOM      3  O   UNL     1       9.547  -2.477  -3.065  1.00  0.00    -0.252 OA
BRANCH   2   4
ATOM      4  O   UNL     1       7.285  -2.477  -3.440  1.00  0.00    -0.481 OA
ATOM      5  H   UNL     1       7.378  -3.082  -4.245  1.00  0.00     0.296 HD
ENDBRANCH   2   4
ENDBRANCH   1   2
BRANCH   1   6
ATOM      6  C   UNL     1       7.015  -0.015  -2.124  1.00  0.00     0.047 C 
BRANCH   6   7
ATOM      7  C   UNL     1       6.489   0.026  -0.735  1.00  0.00    -0.047 A 
ATOM      8  C   UNL     1       5.847   1.159  -0.254  1.00  0.00     0.004 A 
ATOM      9  C   UNL     1       6.615  -1.033   0.145  1.00  0.00     0.004 A 
ATOM     10  C   UNL     1       5.358   1.232   1.030  1.00  0.00     0.000 A 
ATOM     11  C   UNL     1       6.125  -0.958   1.431  1.00  0.00     0.000 A 
ATOM     12  C   UNL     1       5.490   0.169   1.901  1.00  0.00     0.000 A 
ENDBRANCH   6   7
ENDBRANCH   1   6
TORSDOF 4
ENDMDL
MODEL 2
REMARK VINA RESULT:      -7.2      0.111      1.724
REMARK SMILES O=C(O)CCc1ccccc1
REMARK SMILES IDX 4 1 2 2 1 3 3 4 5 6 6 7 7 8 11 9 8 10 10 11 9 12
REMARK H PARENT 3 5
REMARK Flexibility Score: inf
ROOT
ATOM      1  C   UNL     1       8.380  -0.621  -2.165  1.00  0.00     0.127 C 
ENDROOT
BRANCH   1   2
ATOM      2  C   UNL     1       8.379  -1.894  -2.909  1.00  0.00     0.303 C 
ATOM      3  O   UNL     1       7.277  -2.404  -3.249  1.00  0.00    -0.252 OA
BRANCH   2   4
ATOM      4  O   UNL     1       9.565  -2.558  -3.256  1.00  0.00    -0.481 OA
ATOM      5  H   UNL     1      10.431  -2.036  -3.251  1.00  0.00     0.296 HD
ENDBRANCH   2   4
ENDBRANCH   1   2
BRANCH   1   6
ATOM      6  C   UNL     1       7.011   0.036  -2.152  1.00  0.00     0.047 C 
BRANCH   6   7
ATOM      7  C   UNL     1       6.475   0.121  -0.769  1.00  0.00    -0.047 A 
ATOM      8  C   UNL     1       6.606  -0.946   0.108  1.00  0.00     0.004 A 
ATOM      9  C   UNL     1       5.819   1.239  -0.288  1.00  0.00     0.004 A 
ATOM     10  C   UNL     1       6.111  -0.903   1.391  1.00  0.00     0.000 A 
ATOM     11  C   UNL     1       5.323   1.281   0.998  1.00  0.00     0.000 A 
ATOM     12  C   UNL     1       5.456   0.218   1.861  1.00  0.00     0.000 A 
ENDBRANCH   6   7
ENDBRANCH   1   6
TORSDOF 4
ENDMDL
MODEL 3
REMARK VINA RESULT:      -7.1      0.691      1.576
REMARK SMILES O=C(O)CCc1ccccc1
REMARK SMILES IDX 4 1 2 2 1 3 3 4 5 6 6 7 7 8 11 9 8 10 10 11 9 12
REMARK H PARENT 3 5
REMARK Flexibility Score: inf
ROOT
ATOM      1  C   UNL     1       8.160  -0.935  -1.873  1.00  0.00     0.127 C 
ENDROOT
BRANCH   1   2
ATOM      2  C   UNL     1       8.303  -2.008  -2.873  1.00  0.00     0.303 C 
ATOM      3  O   UNL     1       7.267  -2.480  -3.416  1.00  0.00    -0.252 OA
BRANCH   2   4
ATOM      4  O   UNL     1       9.553  -2.524  -3.244  1.00  0.00    -0.481 OA
ATOM      5  H   UNL     1       9.667  -2.890  -4.180  1.00  0.00     0.296 HD
ENDBRANCH   2   4
ENDBRANCH   1   2
BRANCH   1   6
ATOM      6  C   UNL     1       7.455  -1.412  -0.617  1.00  0.00     0.047 C 
BRANCH   6   7
ATOM      7  C   UNL     1       6.583  -0.345  -0.059  1.00  0.00    -0.047 A 
ATOM      8  C   UNL     1       6.257   0.771  -0.816  1.00  0.00     0.004 A 
ATOM      9  C   UNL     1       6.064  -0.397   1.222  1.00  0.00     0.004 A 
ATOM     10  C   UNL     1       5.461   1.780  -0.324  1.00  0.00     0.000 A 
ATOM     11  C   UNL     1       5.267   0.615   1.713  1.00  0.00     0.000 A 
ATOM     12  C   UNL     1       4.949   1.720   0.956  1.00  0.00     0.000 A 
ENDBRANCH   6   7
ENDBRANCH   1   6
TORSDOF 4
ENDMDL
MODEL 4
REMARK VINA RESULT:      -6.8      3.401      5.082
REMARK SMILES O=C(O)CCc1ccccc1
REMARK SMILES IDX 4 1 2 2 1 3 3 4 5 6 6 7 7 8 11 9 8 10 10 11 9 12
REMARK H PARENT 3 5
REMARK Flexibility Score: inf
ROOT
ATOM      1  C   UNL     1       4.986   1.805   0.733  1.00  0.00     0.127 C 
ENDROOT
BRANCH   1   2
ATOM      2  C   UNL     1       4.466   1.119   1.930  1.00  0.00     0.303 C 
ATOM      3  O   UNL     1       5.161   0.214   2.467  1.00  0.00    -0.252 OA
BRANCH   2   4
ATOM      4  O   UNL     1       3.223   1.440   2.495  1.00  0.00    -0.481 OA
ATOM      5  H   UNL     1       2.583   2.013   1.962  1.00  0.00     0.296 HD
ENDBRANCH   2   4
ENDBRANCH   1   2
BRANCH   1   6
ATOM      6  C   UNL     1       6.499   1.927   0.754  1.00  0.00     0.047 C 
BRANCH   6   7
ATOM      7  C   UNL     1       7.114   1.117  -0.330  1.00  0.00    -0.047 A 
ATOM      8  C   UNL     1       8.465   1.234  -0.622  1.00  0.00     0.004 A 
ATOM      9  C   UNL     1       6.389   0.226  -1.100  1.00  0.00     0.004 A 
ATOM     10  C   UNL     1       9.061   0.505  -1.625  1.00  0.00     0.000 A 
ATOM     11  C   UNL     1       6.988  -0.503  -2.105  1.00  0.00     0.000 A 
ATOM     12  C   UNL     1       8.329  -0.381  -2.390  1.00  0.00     0.000 A 
ENDBRANCH   6   7
ENDBRANCH   1   6
TORSDOF 4
ENDMDL
MODEL 5
REMARK VINA RESULT:      -6.6      3.825      4.981
REMARK SMILES O=C(O)CCc1ccccc1
REMARK SMILES IDX 4 1 2 2 1 3 3 4 5 6 6 7 7 8 11 9 8 10 10 11 9 12
REMARK H PARENT 3 5
REMARK Flexibility Score: inf
ROOT
ATOM      1  C   UNL     1       5.479   2.907   0.104  1.00  0.00     0.127 C 
ENDROOT
BRANCH   1   2
ATOM      2  C   UNL     1       6.286   3.864   0.882  1.00  0.00     0.303 C 
ATOM      3  O   UNL     1       6.931   4.759   0.272  1.00  0.00    -0.252 OA
BRANCH   2   4
ATOM      4  O   UNL     1       6.360   3.815   2.282  1.00  0.00    -0.481 OA
ATOM      5  H   UNL     1       7.221   3.504   2.710  1.00  0.00     0.296 HD
ENDBRANCH   2   4
ENDBRANCH   1   2
BRANCH   1   6
ATOM      6  C   UNL     1       4.872   1.824   0.978  1.00  0.00     0.047 C 
BRANCH   6   7
ATOM      7  C   UNL     1       5.715   0.600   0.972  1.00  0.00    -0.047 A 
ATOM      8  C   UNL     1       5.749  -0.241   2.075  1.00  0.00     0.004 A 
ATOM      9  C   UNL     1       6.503   0.240  -0.105  1.00  0.00     0.004 A 
ATOM     10  C   UNL     1       6.527  -1.376   2.105  1.00  0.00     0.000 A 
ATOM     11  C   UNL     1       7.282  -0.898  -0.074  1.00  0.00     0.000 A 
ATOM     12  C   UNL     1       7.312  -1.726   1.025  1.00  0.00     0.000 A 
ENDBRANCH   6   7
ENDBRANCH   1   6
TORSDOF 4
ENDMDL
