@<TRIPOS>MOLECULE
/home/cewinharhar/GITHUB/reincatalyze/data/processed/docking_pred/2023-Apr-25-2248_maxeplen10_maxtrainstep1000_exh16_gamma099_lrac3e-4_lrcr1e-3/cb79d4b49cb2e7af28552c4e2a37cc688e9725fc_ligand_2.pdbqt
 12 12 0 0 0
SMALL
GASTEIGER

@<TRIPOS>ATOM
      1  C          8.1600   -0.9350   -1.8730 C.3     1  UNL1        0.1270
      2  C          8.3030   -2.0080   -2.8730 C.2     1  UNL1        0.3030
      3  O          7.2670   -2.4800   -3.4160 O.2     1  UNL1       -0.2520
      4  O          9.5530   -2.5240   -3.2440 O.3     1  UNL1       -0.4810
      5  H          9.6670   -2.8900   -4.1800 H       1  UNL1        0.2960
      6  C          7.4550   -1.4120   -0.6170 C.3     1  UNL1        0.0470
      7  C          6.5830   -0.3450   -0.0590 C.2     1  UNL1       -0.0470
      8  C          6.2570    0.7710   -0.8160 C.2     1  UNL1        0.0040
      9  C          6.0640   -0.3970    1.2220 C.2     1  UNL1        0.0040
     10  C          5.4610    1.7800   -0.3240 C.2     1  UNL1        0.0000
     11  C          5.2670    0.6150    1.7130 C.2     1  UNL1        0.0000
     12  C          4.9490    1.7200    0.9560 C.2     1  UNL1        0.0000
@<TRIPOS>BOND
     1     5     4    1
     2     3     2    2
     3     4     2    1
     4     2     1    1
     5     1     6    1
     6     8    10    1
     7     8     7    2
     8     6     7    1
     9    10    12    2
    10     7     9    1
    11    12    11    1
    12     9    11    2
