@<TRIPOS>MOLECULE
/home/cewinharhar/GITHUB/reincatalyze/data/processed/docking_pred/2023-Apr-25-2248_maxeplen10_maxtrainstep1000_exh16_gamma099_lrac3e-4_lrcr1e-3/cb79d4b49cb2e7af28552c4e2a37cc688e9725fc_ligand_2.pdbqt
 12 12 0 0 0
SMALL
GASTEIGER

@<TRIPOS>ATOM
      1  C          8.3800   -0.6210   -2.1650 C.3     1  UNL1        0.1270
      2  C          8.3790   -1.8940   -2.9090 C.2     1  UNL1        0.3030
      3  O          7.2770   -2.4040   -3.2490 O.2     1  UNL1       -0.2520
      4  O          9.5650   -2.5580   -3.2560 O.3     1  UNL1       -0.4810
      5  H         10.4310   -2.0360   -3.2510 H       1  UNL1        0.2960
      6  C          7.0110    0.0360   -2.1520 C.3     1  UNL1        0.0470
      7  C          6.4750    0.1210   -0.7690 C.2     1  UNL1       -0.0470
      8  C          6.6060   -0.9460    0.1080 C.2     1  UNL1        0.0040
      9  C          5.8190    1.2390   -0.2880 C.2     1  UNL1        0.0040
     10  C          6.1110   -0.9030    1.3910 C.2     1  UNL1        0.0000
     11  C          5.3230    1.2810    0.9980 C.2     1  UNL1        0.0000
     12  C          5.4560    0.2180    1.8610 C.2     1  UNL1        0.0000
@<TRIPOS>BOND
     1     4     5    1
     2     4     2    1
     3     3     2    2
     4     2     1    1
     5     1     6    1
     6     6     7    1
     7     7     9    2
     8     7     8    1
     9     9    11    1
    10     8    10    2
    11    11    12    2
    12    10    12    1
