@<TRIPOS>MOLECULE
/home/cewinharhar/GITHUB/reincatalyze/data/processed/docking_pred/2023-Apr-25-2248_maxeplen10_maxtrainstep1000_exh16_gamma099_lrac3e-4_lrcr1e-3/cc4a81c85f0f72a0e9860fd8246284f5ccc1e781_ligand_2.pdbqt
 12 12 0 0 0
SMALL
GASTEIGER

@<TRIPOS>ATOM
      1  C          8.1660   -1.6960    1.1330 C.3     1  UNL1        0.1270
      2  C          8.5040   -2.8660    0.3020 C.2     1  UNL1        0.3030
      3  O          9.1670   -3.8090    0.8140 O.2     1  UNL1       -0.2520
      4  O          8.1120   -2.9680   -1.0400 O.3     1  UNL1       -0.4810
      5  H          7.9330   -2.1180   -1.5580 H       1  UNL1        0.2960
      6  C          6.6720   -1.5750    1.3730 C.3     1  UNL1        0.0470
      7  C          6.1490   -0.2910    0.8390 C.2     1  UNL1       -0.0470
      8  C          6.4060    0.0880   -0.4710 C.2     1  UNL1        0.0040
      9  C          5.4010    0.5880    1.6010 C.2     1  UNL1        0.0040
     10  C          5.9450    1.2750   -0.9930 C.2     1  UNL1        0.0000
     11  C          4.9390    1.7760    1.0770 C.2     1  UNL1        0.0000
     12  C          5.2000    2.1460   -0.2230 C.2     1  UNL1        0.0000
@<TRIPOS>BOND
     1     5     4    1
     2     4     2    1
     3    10     8    1
     4    10    12    2
     5     8     7    2
     6    12    11    1
     7     2     3    2
     8     2     1    1
     9     7     6    1
    10     7     9    1
    11    11     9    2
    12     1     6    1
