@<TRIPOS>MOLECULE
/home/cewinharhar/GITHUB/reincatalyze/data/processed/docking_pred/2023-Apr-25-2248_maxeplen10_maxtrainstep1000_exh16_gamma099_lrac3e-4_lrcr1e-3/cc4a81c85f0f72a0e9860fd8246284f5ccc1e781_ligand_2.pdbqt
 12 12 0 0 0
SMALL
GASTEIGER

@<TRIPOS>ATOM
      1  C          5.0170    1.7680    0.7530 C.3     1  UNL1        0.1270
      2  C          4.4600    1.0950    1.9390 C.2     1  UNL1        0.3030
      3  O          5.1180    0.1660    2.4820 O.2     1  UNL1       -0.2520
      4  O          3.2200    1.4530    2.4890 O.3     1  UNL1       -0.4810
      5  H          2.6400    0.7260    2.8860 H       1  UNL1        0.2960
      6  C          6.5330    1.8350    0.7900 C.3     1  UNL1        0.0470
      7  C          7.1290    1.0360   -0.3120 C.2     1  UNL1       -0.0470
      8  C          8.4500    1.2300   -0.6930 C.2     1  UNL1        0.0040
      9  C          6.4170    0.0820   -1.0150 C.2     1  UNL1        0.0040
     10  C          9.0270    0.5140   -1.7160 C.2     1  UNL1        0.0000
     11  C          6.9970   -0.6350   -2.0400 C.2     1  UNL1        0.0000
     12  C          8.3070   -0.4360   -2.4120 C.2     1  UNL1        0.0000
@<TRIPOS>BOND
     1    12    11    2
     2    12    10    1
     3    11     9    1
     4    10     8    2
     5     9     7    2
     6     8     7    1
     7     7     6    1
     8     1     6    1
     9     1     2    1
    10     2     3    2
    11     2     4    1
    12     4     5    1
