@<TRIPOS>MOLECULE
/home/cewinharhar/GITHUB/reincatalyze/data/processed/docking_pred/2023-Apr-25-2248_maxeplen10_maxtrainstep1000_exh16_gamma099_lrac3e-4_lrcr1e-3/cc4a81c85f0f72a0e9860fd8246284f5ccc1e781_ligand_2.pdbqt
 12 12 0 0 0
SMALL
GASTEIGER

@<TRIPOS>ATOM
      1  C          8.3800   -0.6240   -2.1560 C.3     1  UNL1        0.1270
      2  C          8.3910   -1.8970   -2.8980 C.2     1  UNL1        0.3030
      3  O          7.2940   -2.4140   -3.2440 O.2     1  UNL1       -0.2520
      4  O          9.5820   -2.5560   -3.2350 O.3     1  UNL1       -0.4810
      5  H          9.7680   -2.7500   -4.2100 H       1  UNL1        0.2960
      6  C          7.0050    0.0190   -2.1400 C.3     1  UNL1        0.0470
      7  C          6.4650    0.0880   -0.7570 C.2     1  UNL1       -0.0470
      8  C          5.7970    1.2210   -0.3140 C.2     1  UNL1        0.0040
      9  C          6.6020   -0.9440    0.1520 C.2     1  UNL1        0.0040
     10  C          5.2950    1.3200    0.9630 C.2     1  UNL1        0.0000
     11  C          6.0980   -0.8430    1.4310 C.2     1  UNL1        0.0000
     12  C          5.4380    0.2840    1.8640 C.2     1  UNL1        0.0000
@<TRIPOS>BOND
     1     5     4    1
     2     3     2    2
     3     4     2    1
     4     2     1    1
     5     1     6    1
     6     6     7    1
     7     7     8    2
     8     7     9    1
     9     8    10    1
    10     9    11    2
    11    10    12    2
    12    11    12    1
