MODEL 1
REMARK VINA RESULT:      -7.2      0.000      0.000
REMARK SMILES O=C(O)CCc1ccccc1
REMARK SMILES IDX 4 1 2 2 1 3 3 4 5 6 6 7 7 8 11 9 8 10 10 11 9 12
REMARK H PARENT 3 5
REMARK Flexibility Score: inf
ROOT
ATOM      1  C   UNL     1       8.432  -0.783  -1.985  1.00  0.00     0.127 C 
ENDROOT
BRANCH   1   2
ATOM      2  C   UNL     1       8.407  -1.975  -2.851  1.00  0.00     0.303 C 
ATOM      3  O   UNL     1       7.297  -2.414  -3.256  1.00  0.00    -0.252 OA
BRANCH   2   4
ATOM      4  O   UNL     1       9.578  -2.640  -3.241  1.00  0.00    -0.481 OA
ATOM      5  H   UNL     1       9.555  -3.208  -4.077  1.00  0.00     0.296 HD
ENDBRANCH   2   4
ENDBRANCH   1   2
BRANCH   1   6
ATOM      6  C   UNL     1       7.145   0.018  -2.073  1.00  0.00     0.047 C 
BRANCH   6   7
ATOM      7  C   UNL     1       6.514   0.162  -0.735  1.00  0.00    -0.047 A 
ATOM      8  C   UNL     1       6.625  -0.847   0.212  1.00  0.00     0.004 A 
ATOM      9  C   UNL     1       5.788   1.279  -0.366  1.00  0.00     0.004 A 
ATOM     10  C   UNL     1       6.044  -0.748   1.455  1.00  0.00     0.000 A 
ATOM     11  C   UNL     1       5.207   1.377   0.880  1.00  0.00     0.000 A 
ATOM     12  C   UNL     1       5.320   0.371   1.813  1.00  0.00     0.000 A 
ENDBRANCH   6   7
ENDBRANCH   1   6
TORSDOF 4
ENDMDL
MODEL 2
REMARK VINA RESULT:      -7.2      0.128      1.425
REMARK SMILES O=C(O)CCc1ccccc1
REMARK SMILES IDX 4 1 2 2 1 3 3 4 5 6 6 7 7 8 11 9 8 10 10 11 9 12
REMARK H PARENT 3 5
REMARK Flexibility Score: inf
ROOT
ATOM      1  C   UNL     1       8.380  -0.624  -2.156  1.00  0.00     0.127 C 
ENDROOT
BRANCH   1   2
ATOM      2  C   UNL     1       8.391  -1.897  -2.898  1.00  0.00     0.303 C 
ATOM      3  O   UNL     1       7.294  -2.414  -3.244  1.00  0.00    -0.252 OA
BRANCH   2   4
ATOM      4  O   UNL     1       9.582  -2.556  -3.235  1.00  0.00    -0.481 OA
ATOM      5  H   UNL     1       9.768  -2.750  -4.210  1.00  0.00     0.296 HD
ENDBRANCH   2   4
ENDBRANCH   1   2
BRANCH   1   6
ATOM      6  C   UNL     1       7.005   0.019  -2.140  1.00  0.00     0.047 C 
BRANCH   6   7
ATOM      7  C   UNL     1       6.465   0.088  -0.757  1.00  0.00    -0.047 A 
ATOM      8  C   UNL     1       5.797   1.221  -0.314  1.00  0.00     0.004 A 
ATOM      9  C   UNL     1       6.602  -0.944   0.152  1.00  0.00     0.004 A 
ATOM     10  C   UNL     1       5.295   1.320   0.963  1.00  0.00     0.000 A 
ATOM     11  C   UNL     1       6.098  -0.843   1.431  1.00  0.00     0.000 A 
ATOM     12  C   UNL     1       5.438   0.284   1.864  1.00  0.00     0.000 A 
ENDBRANCH   6   7
ENDBRANCH   1   6
TORSDOF 4
ENDMDL
MODEL 3
REMARK VINA RESULT:      -6.8      3.324      5.184
REMARK SMILES O=C(O)CCc1ccccc1
REMARK SMILES IDX 4 1 2 2 1 3 3 4 5 6 6 7 7 8 11 9 8 10 10 11 9 12
REMARK H PARENT 3 5
REMARK Flexibility Score: inf
ROOT
ATOM      1  C   UNL     1       5.017   1.768   0.753  1.00  0.00     0.127 C 
ENDROOT
BRANCH   1   2
ATOM      2  C   UNL     1       4.460   1.095   1.939  1.00  0.00     0.303 C 
ATOM      3  O   UNL     1       5.118   0.166   2.482  1.00  0.00    -0.252 OA
BRANCH   2   4
ATOM      4  O   UNL     1       3.220   1.453   2.489  1.00  0.00    -0.481 OA
ATOM      5  H   UNL     1       2.640   0.726   2.886  1.00  0.00     0.296 HD
ENDBRANCH   2   4
ENDBRANCH   1   2
BRANCH   1   6
ATOM      6  C   UNL     1       6.533   1.835   0.790  1.00  0.00     0.047 C 
BRANCH   6   7
ATOM      7  C   UNL     1       7.129   1.036  -0.312  1.00  0.00    -0.047 A 
ATOM      8  C   UNL     1       8.450   1.230  -0.693  1.00  0.00     0.004 A 
ATOM      9  C   UNL     1       6.417   0.082  -1.015  1.00  0.00     0.004 A 
ATOM     10  C   UNL     1       9.027   0.514  -1.716  1.00  0.00     0.000 A 
ATOM     11  C   UNL     1       6.997  -0.635  -2.040  1.00  0.00     0.000 A 
ATOM     12  C   UNL     1       8.307  -0.436  -2.412  1.00  0.00     0.000 A 
ENDBRANCH   6   7
ENDBRANCH   1   6
TORSDOF 4
ENDMDL
MODEL 4
REMARK VINA RESULT:      -6.6      1.935      2.254
REMARK SMILES O=C(O)CCc1ccccc1
REMARK SMILES IDX 4 1 2 2 1 3 3 4 5 6 6 7 7 8 11 9 8 10 10 11 9 12
REMARK H PARENT 3 5
REMARK Flexibility Score: inf
ROOT
ATOM      1  C   UNL     1       8.258   0.129  -2.204  1.00  0.00     0.127 C 
ENDROOT
BRANCH   1   2
ATOM      2  C   UNL     1       9.367   0.332  -1.254  1.00  0.00     0.303 C 
ATOM      3  O   UNL     1       9.452  -0.417  -0.243  1.00  0.00    -0.252 OA
BRANCH   2   4
ATOM      4  O   UNL     1      10.333   1.332  -1.436  1.00  0.00    -0.481 OA
ATOM      5  H   UNL     1      10.025   2.268  -1.659  1.00  0.00     0.296 HD
ENDBRANCH   2   4
ENDBRANCH   1   2
BRANCH   1   6
ATOM      6  C   UNL     1       7.100  -0.630  -1.580  1.00  0.00     0.047 C 
BRANCH   6   7
ATOM      7  C   UNL     1       6.338   0.238  -0.644  1.00  0.00    -0.047 A 
ATOM      8  C   UNL     1       6.099  -0.168   0.661  1.00  0.00     0.004 A 
ATOM      9  C   UNL     1       5.825   1.468  -1.013  1.00  0.00     0.004 A 
ATOM     10  C   UNL     1       5.389   0.607   1.549  1.00  0.00     0.000 A 
ATOM     11  C   UNL     1       5.114   2.243  -0.122  1.00  0.00     0.000 A 
ATOM     12  C   UNL     1       4.880   1.833   1.170  1.00  0.00     0.000 A 
ENDBRANCH   6   7
ENDBRANCH   1   6
TORSDOF 4
ENDMDL
MODEL 5
REMARK VINA RESULT:      -6.6      1.885      2.884
REMARK SMILES O=C(O)CCc1ccccc1
REMARK SMILES IDX 4 1 2 2 1 3 3 4 5 6 6 7 7 8 11 9 8 10 10 11 9 12
REMARK H PARENT 3 5
REMARK Flexibility Score: inf
ROOT
ATOM      1  C   UNL     1       8.166  -1.696   1.133  1.00  0.00     0.127 C 
ENDROOT
BRANCH   1   2
ATOM      2  C   UNL     1       8.504  -2.866   0.302  1.00  0.00     0.303 C 
ATOM      3  O   UNL     1       9.167  -3.809   0.814  1.00  0.00    -0.252 OA
BRANCH   2   4
ATOM      4  O   UNL     1       8.112  -2.968  -1.040  1.00  0.00    -0.481 OA
ATOM      5  H   UNL     1       7.933  -2.118  -1.558  1.00  0.00     0.296 HD
ENDBRANCH   2   4
ENDBRANCH   1   2
BRANCH   1   6
ATOM      6  C   UNL     1       6.672  -1.575   1.373  1.00  0.00     0.047 C 
BRANCH   6   7
ATOM      7  C   UNL     1       6.149  -0.291   0.839  1.00  0.00    -0.047 A 
ATOM      8  C   UNL     1       6.406   0.088  -0.471  1.00  0.00     0.004 A 
ATOM      9  C   UNL     1       5.401   0.588   1.601  1.00  0.00     0.004 A 
ATOM     10  C   UNL     1       5.945   1.275  -0.993  1.00  0.00     0.000 A 
ATOM     11  C   UNL     1       4.939   1.776   1.077  1.00  0.00     0.000 A 
ATOM     12  C   UNL     1       5.200   2.146  -0.223  1.00  0.00     0.000 A 
ENDBRANCH   6   7
ENDBRANCH   1   6
TORSDOF 4
ENDMDL
