@<TRIPOS>MOLECULE
/home/cewinharhar/GITHUB/reincatalyze/data/processed/docking_pred/2023-Apr-25-2248_maxeplen10_maxtrainstep1000_exh16_gamma099_lrac3e-4_lrcr1e-3/cc4a81c85f0f72a0e9860fd8246284f5ccc1e781_ligand_2.pdbqt
 12 12 0 0 0
SMALL
GASTEIGER

@<TRIPOS>ATOM
      1  C          8.2580    0.1290   -2.2040 C.3     1  UNL1        0.1270
      2  C          9.3670    0.3320   -1.2540 C.2     1  UNL1        0.3030
      3  O          9.4520   -0.4170   -0.2430 O.2     1  UNL1       -0.2520
      4  O         10.3330    1.3320   -1.4360 O.3     1  UNL1       -0.4810
      5  H         10.0250    2.2680   -1.6590 H       1  UNL1        0.2960
      6  C          7.1000   -0.6300   -1.5800 C.3     1  UNL1        0.0470
      7  C          6.3380    0.2380   -0.6440 C.2     1  UNL1       -0.0470
      8  C          6.0990   -0.1680    0.6610 C.2     1  UNL1        0.0040
      9  C          5.8250    1.4680   -1.0130 C.2     1  UNL1        0.0040
     10  C          5.3890    0.6070    1.5490 C.2     1  UNL1        0.0000
     11  C          5.1140    2.2430   -0.1220 C.2     1  UNL1        0.0000
     12  C          4.8800    1.8330    1.1700 C.2     1  UNL1        0.0000
@<TRIPOS>BOND
     1     1     6    1
     2     1     2    1
     3     5     4    1
     4     6     7    1
     5     4     2    1
     6     2     3    2
     7     9     7    2
     8     9    11    1
     9     7     8    1
    10    11    12    2
    11     8    10    2
    12    12    10    1
