@<TRIPOS>MOLECULE
/home/cewinharhar/GITHUB/reincatalyze/data/processed/docking_pred/2023-Apr-25-2248_maxeplen10_maxtrainstep1000_exh16_gamma099_lrac3e-4_lrcr1e-3/cdc825ac9d1cfd0e1f917a20457d8153cb4f8d56_ligand_2.pdbqt
 12 12 0 0 0
SMALL
GASTEIGER

@<TRIPOS>ATOM
      1  C          5.3970    2.9820    0.0700 C.3     1  UNL1        0.1270
      2  C          6.2570    3.8820    0.8600 C.2     1  UNL1        0.3030
      3  O          6.9190    4.7750    0.2640 O.2     1  UNL1       -0.2520
      4  O          6.3640    3.7800    2.2540 O.3     1  UNL1       -0.4810
      5  H          6.5400    2.8710    2.6610 H       1  UNL1        0.2960
      6  C          5.0980    1.6860    0.8020 C.3     1  UNL1        0.0470
      7  C          5.9550    0.5810    0.2980 C.2     1  UNL1       -0.0470
      8  C          6.3370    0.5320   -1.0350 C.2     1  UNL1        0.0040
      9  C          6.4050   -0.4460    1.1080 C.2     1  UNL1        0.0040
     10  C          7.1210   -0.4830   -1.5340 C.2     1  UNL1        0.0000
     11  C          7.1900   -1.4620    0.6070 C.2     1  UNL1        0.0000
     12  C          7.5630   -1.5040   -0.7170 C.2     1  UNL1        0.0000
@<TRIPOS>BOND
     1    10     8    1
     2    10    12    2
     3     8     7    2
     4    12    11    1
     5     1     6    1
     6     1     2    1
     7     3     2    2
     8     7     6    1
     9     7     9    1
    10    11     9    2
    11     2     4    1
    12     4     5    1
