@<TRIPOS>MOLECULE
/home/cewinharhar/GITHUB/reincatalyze/data/processed/docking_pred/2023-Apr-25-2248_maxeplen10_maxtrainstep1000_exh16_gamma099_lrac3e-4_lrcr1e-3/cdc825ac9d1cfd0e1f917a20457d8153cb4f8d56_ligand_2.pdbqt
 12 12 0 0 0
SMALL
GASTEIGER

@<TRIPOS>ATOM
      1  C          5.0060    1.7510    0.7070 C.3     1  UNL1        0.1270
      2  C          4.4930    1.1130    1.9320 C.2     1  UNL1        0.3030
      3  O          5.1980    0.2420    2.5110 O.2     1  UNL1       -0.2520
      4  O          3.2450    1.4430    2.4800 O.3     1  UNL1       -0.4810
      5  H          2.4820    0.7880    2.3730 H       1  UNL1        0.2960
      6  C          6.5170    1.8940    0.7240 C.3     1  UNL1        0.0470
      7  C          7.1430    1.0700   -0.3430 C.2     1  UNL1       -0.0470
      8  C          8.4990    1.1790   -0.6180 C.2     1  UNL1        0.0040
      9  C          6.4250    0.1750   -1.1150 C.2     1  UNL1        0.0040
     10  C          9.1050    0.4380   -1.6070 C.2     1  UNL1        0.0000
     11  C          7.0340   -0.5660   -2.1050 C.2     1  UNL1        0.0000
     12  C          8.3800   -0.4520   -2.3720 C.2     1  UNL1        0.0000
@<TRIPOS>BOND
     1    12    11    2
     2    12    10    1
     3    11     9    1
     4    10     8    2
     5     9     7    2
     6     8     7    1
     7     7     6    1
     8     1     6    1
     9     1     2    1
    10     2     4    1
    11     2     3    2
    12     5     4    1
