@<TRIPOS>MOLECULE
/home/cewinharhar/GITHUB/reincatalyze/data/processed/docking_pred/2023-Apr-25-2248_maxeplen10_maxtrainstep1000_exh16_gamma099_lrac3e-4_lrcr1e-3/cdc825ac9d1cfd0e1f917a20457d8153cb4f8d56_ligand_2.pdbqt
 12 12 0 0 0
SMALL
GASTEIGER

@<TRIPOS>ATOM
      1  C          8.4380   -0.6230   -2.1590 C.3     1  UNL1        0.1270
      2  C          8.4460   -1.8900   -2.9120 C.2     1  UNL1        0.3030
      3  O          9.5410   -2.4900   -3.0880 O.2     1  UNL1       -0.2520
      4  O          7.2760   -2.4550   -3.4390 O.3     1  UNL1       -0.4810
      5  H          7.2420   -3.4560   -3.5770 H       1  UNL1        0.2960
      6  C          7.0610    0.0160   -2.1270 C.3     1  UNL1        0.0470
      7  C          6.5180    0.0420   -0.7440 C.2     1  UNL1       -0.0470
      8  C          5.8640    1.1670   -0.2610 C.2     1  UNL1        0.0040
      9  C          6.6390   -1.0250    0.1280 C.2     1  UNL1        0.0040
     10  C          5.3600    1.2260    1.0180 C.2     1  UNL1        0.0000
     11  C          6.1330   -0.9640    1.4080 C.2     1  UNL1        0.0000
     12  C          5.4870    0.1560    1.8810 C.2     1  UNL1        0.0000
@<TRIPOS>BOND
     1     5     4    1
     2     4     2    1
     3     3     2    2
     4     2     1    1
     5     1     6    1
     6     6     7    1
     7     7     8    2
     8     7     9    1
     9     8    10    1
    10     9    11    2
    11    10    12    2
    12    11    12    1
