@<TRIPOS>MOLECULE
/home/cewinharhar/GITHUB/reincatalyze/data/processed/docking_pred/2023-Apr-25-2248_maxeplen10_maxtrainstep1000_exh16_gamma099_lrac3e-4_lrcr1e-3/cdc825ac9d1cfd0e1f917a20457d8153cb4f8d56_ligand_2.pdbqt
 12 12 0 0 0
SMALL
GASTEIGER

@<TRIPOS>ATOM
      1  C          8.3930   -0.6660   -2.1110 C.3     1  UNL1        0.1270
      2  C          8.4030   -1.9170   -2.8890 C.2     1  UNL1        0.3030
      3  O          7.3050   -2.4310   -3.2370 O.2     1  UNL1       -0.2520
      4  O          9.5940   -2.5580   -3.2590 O.3     1  UNL1       -0.4810
      5  H          9.8940   -2.5020   -4.2230 H       1  UNL1        0.2960
      6  C          7.0310    0.0040   -2.1180 C.3     1  UNL1        0.0470
      7  C          6.4790    0.1050   -0.7420 C.2     1  UNL1       -0.0470
      8  C          6.6050   -0.9500    0.1500 C.2     1  UNL1        0.0040
      9  C          5.8150    1.2280   -0.2830 C.2     1  UNL1        0.0040
     10  C          6.0960   -0.8910    1.4280 C.2     1  UNL1        0.0000
     11  C          5.3060    1.2850    0.9970 C.2     1  UNL1        0.0000
     12  C          5.4340    0.2340    1.8760 C.2     1  UNL1        0.0000
@<TRIPOS>BOND
     1     5     4    1
     2     4     2    1
     3     3     2    2
     4     2     1    1
     5     6     1    1
     6     6     7    1
     7     7     9    2
     8     7     8    1
     9     9    11    1
    10     8    10    2
    11    11    12    2
    12    10    12    1
