@<TRIPOS>MOLECULE
/home/cewinharhar/GITHUB/reincatalyze/data/processed/docking_pred/2023-Apr-25-2248_maxeplen10_maxtrainstep1000_exh16_gamma099_lrac3e-4_lrcr1e-3/cf36f354a35629e8f67fe5763b2daf9f978d0e2b_ligand_2.pdbqt
 12 12 0 0 0
SMALL
GASTEIGER

@<TRIPOS>ATOM
      1  C          8.3920   -0.6320   -2.1510 C.3     1  UNL1        0.1270
      2  C          8.3930   -1.8990   -2.9030 C.2     1  UNL1        0.3030
      3  O          7.2910   -2.4090   -3.2450 O.2     1  UNL1       -0.2520
      4  O          9.5790   -2.5600   -3.2540 O.3     1  UNL1       -0.4810
      5  H         10.1950   -2.1230   -3.9250 H       1  UNL1        0.2960
      6  C          7.0250    0.0270   -2.1380 C.3     1  UNL1        0.0470
      7  C          6.4760    0.0880   -0.7580 C.2     1  UNL1       -0.0470
      8  C          5.7950    1.2130   -0.3160 C.2     1  UNL1        0.0040
      9  C          6.6160   -0.9460    0.1500 C.2     1  UNL1        0.0040
     10  C          5.2850    1.3050    0.9590 C.2     1  UNL1        0.0000
     11  C          6.1040   -0.8530    1.4260 C.2     1  UNL1        0.0000
     12  C          5.4310    0.2680    1.8570 C.2     1  UNL1        0.0000
@<TRIPOS>BOND
     1     5     4    1
     2     4     2    1
     3     3     2    2
     4     2     1    1
     5     1     6    1
     6     6     7    1
     7     7     8    2
     8     7     9    1
     9     8    10    1
    10     9    11    2
    11    10    12    2
    12    11    12    1
