MODEL 1
REMARK VINA RESULT:      -7.3      0.000      0.000
REMARK SMILES O=C(O)CCc1ccccc1
REMARK SMILES IDX 4 1 2 2 1 3 3 4 5 6 6 7 7 8 11 9 8 10 10 11 9 12
REMARK H PARENT 3 5
REMARK Flexibility Score: inf
ROOT
ATOM      1  C   UNL     1       8.409  -0.635  -2.175  1.00  0.00     0.127 C 
ENDROOT
BRANCH   1   2
ATOM      2  C   UNL     1       8.436  -1.910  -2.913  1.00  0.00     0.303 C 
ATOM      3  O   UNL     1       9.537  -2.504  -3.070  1.00  0.00    -0.252 OA
BRANCH   2   4
ATOM      4  O   UNL     1       7.276  -2.490  -3.447  1.00  0.00    -0.481 OA
ATOM      5  H   UNL     1       6.488  -2.649  -2.833  1.00  0.00     0.296 HD
ENDBRANCH   2   4
ENDBRANCH   1   2
BRANCH   1   6
ATOM      6  C   UNL     1       7.028  -0.005  -2.168  1.00  0.00     0.047 C 
BRANCH   6   7
ATOM      7  C   UNL     1       6.493   0.090  -0.785  1.00  0.00    -0.047 A 
ATOM      8  C   UNL     1       6.618  -0.973   0.098  1.00  0.00     0.004 A 
ATOM      9  C   UNL     1       5.844   1.215  -0.309  1.00  0.00     0.004 A 
ATOM     10  C   UNL     1       6.124  -0.920   1.381  1.00  0.00     0.000 A 
ATOM     11  C   UNL     1       5.350   1.267   0.977  1.00  0.00     0.000 A 
ATOM     12  C   UNL     1       5.477   0.207   1.846  1.00  0.00     0.000 A 
ENDBRANCH   6   7
ENDBRANCH   1   6
TORSDOF 4
ENDMDL
MODEL 2
REMARK VINA RESULT:      -7.3      0.103      1.723
REMARK SMILES O=C(O)CCc1ccccc1
REMARK SMILES IDX 4 1 2 2 1 3 3 4 5 6 6 7 7 8 11 9 8 10 10 11 9 12
REMARK H PARENT 3 5
REMARK Flexibility Score: inf
ROOT
ATOM      1  C   UNL     1       8.392  -0.632  -2.151  1.00  0.00     0.127 C 
ENDROOT
BRANCH   1   2
ATOM      2  C   UNL     1       8.393  -1.899  -2.903  1.00  0.00     0.303 C 
ATOM      3  O   UNL     1       7.291  -2.409  -3.245  1.00  0.00    -0.252 OA
BRANCH   2   4
ATOM      4  O   UNL     1       9.579  -2.560  -3.254  1.00  0.00    -0.481 OA
ATOM      5  H   UNL     1      10.195  -2.123  -3.925  1.00  0.00     0.296 HD
ENDBRANCH   2   4
ENDBRANCH   1   2
BRANCH   1   6
ATOM      6  C   UNL     1       7.025   0.027  -2.138  1.00  0.00     0.047 C 
BRANCH   6   7
ATOM      7  C   UNL     1       6.476   0.088  -0.758  1.00  0.00    -0.047 A 
ATOM      8  C   UNL     1       5.795   1.213  -0.316  1.00  0.00     0.004 A 
ATOM      9  C   UNL     1       6.616  -0.946   0.150  1.00  0.00     0.004 A 
ATOM     10  C   UNL     1       5.285   1.305   0.959  1.00  0.00     0.000 A 
ATOM     11  C   UNL     1       6.104  -0.853   1.426  1.00  0.00     0.000 A 
ATOM     12  C   UNL     1       5.431   0.268   1.857  1.00  0.00     0.000 A 
ENDBRANCH   6   7
ENDBRANCH   1   6
TORSDOF 4
ENDMDL
MODEL 3
REMARK VINA RESULT:      -6.8      3.400      5.071
REMARK SMILES O=C(O)CCc1ccccc1
REMARK SMILES IDX 4 1 2 2 1 3 3 4 5 6 6 7 7 8 11 9 8 10 10 11 9 12
REMARK H PARENT 3 5
REMARK Flexibility Score: inf
ROOT
ATOM      1  C   UNL     1       5.011   1.763   0.742  1.00  0.00     0.127 C 
ENDROOT
BRANCH   1   2
ATOM      2  C   UNL     1       4.482   1.094   1.944  1.00  0.00     0.303 C 
ATOM      3  O   UNL     1       5.172   0.194   2.497  1.00  0.00    -0.252 OA
BRANCH   2   4
ATOM      4  O   UNL     1       3.237   1.424   2.497  1.00  0.00    -0.481 OA
ATOM      5  H   UNL     1       3.081   2.374   2.805  1.00  0.00     0.296 HD
ENDBRANCH   2   4
ENDBRANCH   1   2
BRANCH   1   6
ATOM      6  C   UNL     1       6.524   1.891   0.776  1.00  0.00     0.047 C 
BRANCH   6   7
ATOM      7  C   UNL     1       7.149   1.105  -0.320  1.00  0.00    -0.047 A 
ATOM      8  C   UNL     1       6.394   0.218  -1.074  1.00  0.00     0.004 A 
ATOM      9  C   UNL     1       8.491   1.202  -0.639  1.00  0.00     0.004 A 
ATOM     10  C   UNL     1       6.945  -0.532  -2.088  1.00  0.00     0.000 A 
ATOM     11  C   UNL     1       9.042   0.450  -1.655  1.00  0.00     0.000 A 
ATOM     12  C   UNL     1       8.287  -0.429  -2.398  1.00  0.00     0.000 A 
ENDBRANCH   6   7
ENDBRANCH   1   6
TORSDOF 4
ENDMDL
MODEL 4
REMARK VINA RESULT:      -6.8      3.404      5.098
REMARK SMILES O=C(O)CCc1ccccc1
REMARK SMILES IDX 4 1 2 2 1 3 3 4 5 6 6 7 7 8 11 9 8 10 10 11 9 12
REMARK H PARENT 3 5
REMARK Flexibility Score: inf
ROOT
ATOM      1  C   UNL     1       5.027   1.850   0.786  1.00  0.00     0.127 C 
ENDROOT
BRANCH   1   2
ATOM      2  C   UNL     1       4.469   1.133   1.946  1.00  0.00     0.303 C 
ATOM      3  O   UNL     1       5.139   0.202   2.471  1.00  0.00    -0.252 OA
BRANCH   2   4
ATOM      4  O   UNL     1       3.215   1.450   2.490  1.00  0.00    -0.481 OA
ATOM      5  H   UNL     1       2.385   1.150   1.997  1.00  0.00     0.296 HD
ENDBRANCH   2   4
ENDBRANCH   1   2
BRANCH   1   6
ATOM      6  C   UNL     1       6.544   1.895   0.815  1.00  0.00     0.047 C 
BRANCH   6   7
ATOM      7  C   UNL     1       7.123   1.099  -0.298  1.00  0.00    -0.047 A 
ATOM      8  C   UNL     1       8.458   1.237  -0.648  1.00  0.00     0.004 A 
ATOM      9  C   UNL     1       6.379   0.200  -1.041  1.00  0.00     0.004 A 
ATOM     10  C   UNL     1       9.021   0.522  -1.680  1.00  0.00     0.000 A 
ATOM     11  C   UNL     1       6.944  -0.515  -2.074  1.00  0.00     0.000 A 
ATOM     12  C   UNL     1       8.269  -0.372  -2.416  1.00  0.00     0.000 A 
ENDBRANCH   6   7
ENDBRANCH   1   6
TORSDOF 4
ENDMDL
MODEL 5
REMARK VINA RESULT:      -6.6      1.952      2.360
REMARK SMILES O=C(O)CCc1ccccc1
REMARK SMILES IDX 4 1 2 2 1 3 3 4 5 6 6 7 7 8 11 9 8 10 10 11 9 12
REMARK H PARENT 3 5
REMARK Flexibility Score: inf
ROOT
ATOM      1  C   UNL     1       8.292   0.219  -2.215  1.00  0.00     0.127 C 
ENDROOT
BRANCH   1   2
ATOM      2  C   UNL     1       9.409   0.356  -1.264  1.00  0.00     0.303 C 
ATOM      3  O   UNL     1       9.451  -0.400  -0.256  1.00  0.00    -0.252 OA
BRANCH   2   4
ATOM      4  O   UNL     1      10.432   1.299  -1.442  1.00  0.00    -0.481 OA
ATOM      5  H   UNL     1      10.448   1.840  -2.296  1.00  0.00     0.296 HD
ENDBRANCH   2   4
ENDBRANCH   1   2
BRANCH   1   6
ATOM      6  C   UNL     1       7.128  -0.558  -1.626  1.00  0.00     0.047 C 
BRANCH   6   7
ATOM      7  C   UNL     1       6.355   0.282  -0.674  1.00  0.00    -0.047 A 
ATOM      8  C   UNL     1       6.134  -0.145   0.628  1.00  0.00     0.004 A 
ATOM      9  C   UNL     1       5.813   1.505  -1.024  1.00  0.00     0.004 A 
ATOM     10  C   UNL     1       5.413   0.604   1.529  1.00  0.00     0.000 A 
ATOM     11  C   UNL     1       5.091   2.254  -0.120  1.00  0.00     0.000 A 
ATOM     12  C   UNL     1       4.875   1.823   1.169  1.00  0.00     0.000 A 
ENDBRANCH   6   7
ENDBRANCH   1   6
TORSDOF 4
ENDMDL
