@<TRIPOS>MOLECULE
/home/cewinharhar/GITHUB/reincatalyze/data/processed/docking_pred/2023-Apr-25-2248_maxeplen10_maxtrainstep1000_exh16_gamma099_lrac3e-4_lrcr1e-3/cf36f354a35629e8f67fe5763b2daf9f978d0e2b_ligand_2.pdbqt
 12 12 0 0 0
SMALL
GASTEIGER

@<TRIPOS>ATOM
      1  C          8.2920    0.2190   -2.2150 C.3     1  UNL1        0.1270
      2  C          9.4090    0.3560   -1.2640 C.2     1  UNL1        0.3030
      3  O          9.4510   -0.4000   -0.2560 O.2     1  UNL1       -0.2520
      4  O         10.4320    1.2990   -1.4420 O.3     1  UNL1       -0.4810
      5  H         10.4480    1.8400   -2.2960 H       1  UNL1        0.2960
      6  C          7.1280   -0.5580   -1.6260 C.3     1  UNL1        0.0470
      7  C          6.3550    0.2820   -0.6740 C.2     1  UNL1       -0.0470
      8  C          6.1340   -0.1450    0.6280 C.2     1  UNL1        0.0040
      9  C          5.8130    1.5050   -1.0240 C.2     1  UNL1        0.0040
     10  C          5.4130    0.6040    1.5290 C.2     1  UNL1        0.0000
     11  C          5.0910    2.2540   -0.1200 C.2     1  UNL1        0.0000
     12  C          4.8750    1.8230    1.1690 C.2     1  UNL1        0.0000
@<TRIPOS>BOND
     1     5     4    1
     2     1     6    1
     3     1     2    1
     4     6     7    1
     5     4     2    1
     6     2     3    2
     7     9     7    2
     8     9    11    1
     9     7     8    1
    10    11    12    2
    11     8    10    2
    12    12    10    1
