@<TRIPOS>MOLECULE
/home/cewinharhar/GITHUB/reincatalyze/data/processed/docking_pred/2023-Apr-25-2248_maxeplen10_maxtrainstep1000_exh16_gamma099_lrac3e-4_lrcr1e-3/cf36f354a35629e8f67fe5763b2daf9f978d0e2b_ligand_2.pdbqt
 12 12 0 0 0
SMALL
GASTEIGER

@<TRIPOS>ATOM
      1  C          5.0270    1.8500    0.7860 C.3     1  UNL1        0.1270
      2  C          4.4690    1.1330    1.9460 C.2     1  UNL1        0.3030
      3  O          5.1390    0.2020    2.4710 O.2     1  UNL1       -0.2520
      4  O          3.2150    1.4500    2.4900 O.3     1  UNL1       -0.4810
      5  H          2.3850    1.1500    1.9970 H       1  UNL1        0.2960
      6  C          6.5440    1.8950    0.8150 C.3     1  UNL1        0.0470
      7  C          7.1230    1.0990   -0.2980 C.2     1  UNL1       -0.0470
      8  C          8.4580    1.2370   -0.6480 C.2     1  UNL1        0.0040
      9  C          6.3790    0.2000   -1.0410 C.2     1  UNL1        0.0040
     10  C          9.0210    0.5220   -1.6800 C.2     1  UNL1        0.0000
     11  C          6.9440   -0.5150   -2.0740 C.2     1  UNL1        0.0000
     12  C          8.2690   -0.3720   -2.4160 C.2     1  UNL1        0.0000
@<TRIPOS>BOND
     1    12    11    2
     2    12    10    1
     3    11     9    1
     4    10     8    2
     5     9     7    2
     6     8     7    1
     7     7     6    1
     8     1     6    1
     9     1     2    1
    10     2     3    2
    11     2     4    1
    12     5     4    1
