@<TRIPOS>MOLECULE
/home/cewinharhar/GITHUB/reincatalyze/data/processed/docking_pred/2023-Apr-25-2248_maxeplen10_maxtrainstep1000_exh16_gamma099_lrac3e-4_lrcr1e-3/cf36f354a35629e8f67fe5763b2daf9f978d0e2b_ligand_2.pdbqt
 12 12 0 0 0
SMALL
GASTEIGER

@<TRIPOS>ATOM
      1  C          5.0110    1.7630    0.7420 C.3     1  UNL1        0.1270
      2  C          4.4820    1.0940    1.9440 C.2     1  UNL1        0.3030
      3  O          5.1720    0.1940    2.4970 O.2     1  UNL1       -0.2520
      4  O          3.2370    1.4240    2.4970 O.3     1  UNL1       -0.4810
      5  H          3.0810    2.3740    2.8050 H       1  UNL1        0.2960
      6  C          6.5240    1.8910    0.7760 C.3     1  UNL1        0.0470
      7  C          7.1490    1.1050   -0.3200 C.2     1  UNL1       -0.0470
      8  C          6.3940    0.2180   -1.0740 C.2     1  UNL1        0.0040
      9  C          8.4910    1.2020   -0.6390 C.2     1  UNL1        0.0040
     10  C          6.9450   -0.5320   -2.0880 C.2     1  UNL1        0.0000
     11  C          9.0420    0.4500   -1.6550 C.2     1  UNL1        0.0000
     12  C          8.2870   -0.4290   -2.3980 C.2     1  UNL1        0.0000
@<TRIPOS>BOND
     1    12    10    2
     2    12    11    1
     3    10     8    1
     4    11     9    2
     5     8     7    2
     6     9     7    1
     7     7     6    1
     8     1     6    1
     9     1     2    1
    10     2     3    2
    11     2     4    1
    12     4     5    1
