@<TRIPOS>MOLECULE
/home/cewinharhar/GITHUB/reincatalyze/data/processed/docking_pred/2023-Apr-25-2248_maxeplen10_maxtrainstep1000_exh16_gamma099_lrac3e-4_lrcr1e-3/cf36f354a35629e8f67fe5763b2daf9f978d0e2b_ligand_2.pdbqt
 12 12 0 0 0
SMALL
GASTEIGER

@<TRIPOS>ATOM
      1  C          8.4090   -0.6350   -2.1750 C.3     1  UNL1        0.1270
      2  C          8.4360   -1.9100   -2.9130 C.2     1  UNL1        0.3030
      3  O          9.5370   -2.5040   -3.0700 O.2     1  UNL1       -0.2520
      4  O          7.2760   -2.4900   -3.4470 O.3     1  UNL1       -0.4810
      5  H          6.4880   -2.6490   -2.8330 H       1  UNL1        0.2960
      6  C          7.0280   -0.0050   -2.1680 C.3     1  UNL1        0.0470
      7  C          6.4930    0.0900   -0.7850 C.2     1  UNL1       -0.0470
      8  C          6.6180   -0.9730    0.0980 C.2     1  UNL1        0.0040
      9  C          5.8440    1.2150   -0.3090 C.2     1  UNL1        0.0040
     10  C          6.1240   -0.9200    1.3810 C.2     1  UNL1        0.0000
     11  C          5.3500    1.2670    0.9770 C.2     1  UNL1        0.0000
     12  C          5.4770    0.2070    1.8460 C.2     1  UNL1        0.0000
@<TRIPOS>BOND
     1     4     2    1
     2     4     5    1
     3     3     2    2
     4     2     1    1
     5     1     6    1
     6     6     7    1
     7     7     9    2
     8     7     8    1
     9     9    11    1
    10     8    10    2
    11    11    12    2
    12    10    12    1
