@<TRIPOS>MOLECULE
/home/cewinharhar/GITHUB/reincatalyze/data/processed/docking_pred/2023-Apr-25-2248_maxeplen10_maxtrainstep1000_exh16_gamma099_lrac3e-4_lrcr1e-3/d0b377ce7413ba2d0a06352180e6db5bf746794c_ligand_2.pdbqt
 12 12 0 0 0
SMALL
GASTEIGER

@<TRIPOS>ATOM
      1  C          4.9830    1.7440    0.7110 C.3     1  UNL1        0.1270
      2  C          4.4580    1.1030    1.9300 C.2     1  UNL1        0.3030
      3  O          5.1430    0.2060    2.4930 O.2     1  UNL1       -0.2520
      4  O          3.2220    1.4570    2.4890 O.3     1  UNL1       -0.4810
      5  H          3.1390    2.3530    2.9510 H       1  UNL1        0.2960
      6  C          6.4950    1.8780    0.7390 C.3     1  UNL1        0.0470
      7  C          7.1210    1.0650   -0.3360 C.2     1  UNL1       -0.0470
      8  C          8.4660    1.2150   -0.6440 C.2     1  UNL1        0.0040
      9  C          6.4150    0.1400   -1.0830 C.2     1  UNL1        0.0040
     10  C          9.0730    0.4860   -1.6410 C.2     1  UNL1        0.0000
     11  C          7.0250   -0.5900   -2.0810 C.2     1  UNL1        0.0000
     12  C          8.3590   -0.4350   -2.3810 C.2     1  UNL1        0.0000
@<TRIPOS>BOND
     1    12    11    2
     2    12    10    1
     3    11     9    1
     4    10     8    2
     5     9     7    2
     6     8     7    1
     7     7     6    1
     8     1     6    1
     9     1     2    1
    10     2     4    1
    11     2     3    2
    12     4     5    1
