@<TRIPOS>MOLECULE
/home/cewinharhar/GITHUB/reincatalyze/data/processed/docking_pred/2023-Apr-25-2248_maxeplen10_maxtrainstep1000_exh16_gamma099_lrac3e-4_lrcr1e-3/d0b377ce7413ba2d0a06352180e6db5bf746794c_ligand_2.pdbqt
 12 12 0 0 0
SMALL
GASTEIGER

@<TRIPOS>ATOM
      1  C          8.4120   -0.6170   -2.1640 C.3     1  UNL1        0.1270
      2  C          8.4570   -1.8900   -2.9050 C.2     1  UNL1        0.3030
      3  O          9.5700   -2.4570   -3.0810 O.2     1  UNL1       -0.2520
      4  O          7.3030   -2.4970   -3.4220 O.3     1  UNL1       -0.4810
      5  H          6.6670   -1.9350   -3.9720 H       1  UNL1        0.2960
      6  C          7.0230   -0.0020   -2.1640 C.3     1  UNL1        0.0470
      7  C          6.4910    0.1120   -0.7810 C.2     1  UNL1       -0.0470
      8  C          6.6040   -0.9460    0.1100 C.2     1  UNL1        0.0040
      9  C          5.8590    1.2490   -0.3140 C.2     1  UNL1        0.0040
     10  C          6.1120   -0.8760    1.3930 C.2     1  UNL1        0.0000
     11  C          5.3670    1.3180    0.9720 C.2     1  UNL1        0.0000
     12  C          5.4810    0.2640    1.8490 C.2     1  UNL1        0.0000
@<TRIPOS>BOND
     1     5     4    1
     2     4     2    1
     3     3     2    2
     4     2     1    1
     5     1     6    1
     6     6     7    1
     7     7     9    2
     8     7     8    1
     9     9    11    1
    10     8    10    2
    11    11    12    2
    12    10    12    1
