@<TRIPOS>MOLECULE
/home/cewinharhar/GITHUB/reincatalyze/data/processed/docking_pred/2023-Apr-25-2248_maxeplen10_maxtrainstep1000_exh16_gamma099_lrac3e-4_lrcr1e-3/d0b377ce7413ba2d0a06352180e6db5bf746794c_ligand_2.pdbqt
 12 12 0 0 0
SMALL
GASTEIGER

@<TRIPOS>ATOM
      1  C          8.1810   -1.6970    1.1640 C.3     1  UNL1        0.1270
      2  C          8.5270   -2.8720    0.3440 C.2     1  UNL1        0.3030
      3  O          9.2090   -3.7990    0.8600 O.2     1  UNL1       -0.2520
      4  O          8.1230   -2.9960   -0.9930 O.3     1  UNL1       -0.4810
      5  H          8.5480   -2.3950   -1.6850 H       1  UNL1        0.2960
      6  C          6.6860   -1.5860    1.4050 C.3     1  UNL1        0.0470
      7  C          6.1540   -0.3040    0.8730 C.2     1  UNL1       -0.0470
      8  C          6.4170    0.0830   -0.4340 C.2     1  UNL1        0.0040
      9  C          5.3930    0.5640    1.6340 C.2     1  UNL1        0.0040
     10  C          5.9480    1.2680   -0.9530 C.2     1  UNL1        0.0000
     11  C          4.9240    1.7500    1.1130 C.2     1  UNL1        0.0000
     12  C          5.1900    2.1280   -0.1840 C.2     1  UNL1        0.0000
@<TRIPOS>BOND
     1     5     4    1
     2     4     2    1
     3    10     8    1
     4    10    12    2
     5     8     7    2
     6    12    11    1
     7     2     3    2
     8     2     1    1
     9     7     6    1
    10     7     9    1
    11    11     9    2
    12     1     6    1
