@<TRIPOS>MOLECULE
/home/cewinharhar/GITHUB/reincatalyze/data/processed/docking_pred/2023-Apr-25-2248_maxeplen10_maxtrainstep1000_exh16_gamma099_lrac3e-4_lrcr1e-3/d0b377ce7413ba2d0a06352180e6db5bf746794c_ligand_2.pdbqt
 12 12 0 0 0
SMALL
GASTEIGER

@<TRIPOS>ATOM
      1  C          8.2970    0.2650   -2.1900 C.3     1  UNL1        0.1270
      2  C          9.4140    0.3910   -1.2370 C.2     1  UNL1        0.3030
      3  O          9.4620   -0.3860   -0.2450 O.2     1  UNL1       -0.2520
      4  O         10.4290    1.3450   -1.3970 O.3     1  UNL1       -0.4810
      5  H         11.3410    1.1500   -1.0080 H       1  UNL1        0.2960
      6  C          7.1360   -0.5250   -1.6120 C.3     1  UNL1        0.0470
      7  C          6.3530    0.3010   -0.6560 C.2     1  UNL1       -0.0470
      8  C          6.1290   -0.1380    0.6410 C.2     1  UNL1        0.0040
      9  C          5.8050    1.5240   -0.9980 C.2     1  UNL1        0.0040
     10  C          5.4000    0.5980    1.5460 C.2     1  UNL1        0.0000
     11  C          5.0750    2.2610   -0.0900 C.2     1  UNL1        0.0000
     12  C          4.8560    1.8180    1.1940 C.2     1  UNL1        0.0000
@<TRIPOS>BOND
     1     1     6    1
     2     1     2    1
     3     6     7    1
     4     4     2    1
     5     4     5    1
     6     2     3    2
     7     9     7    2
     8     9    11    1
     9     7     8    1
    10    11    12    2
    11     8    10    2
    12    12    10    1
