@<TRIPOS>MOLECULE
/home/cewinharhar/GITHUB/reincatalyze/data/processed/docking_pred/2023-Apr-25-2248_maxeplen10_maxtrainstep1000_exh16_gamma099_lrac3e-4_lrcr1e-3/d0b377ce7413ba2d0a06352180e6db5bf746794c_ligand_2.pdbqt
 12 12 0 0 0
SMALL
GASTEIGER

@<TRIPOS>ATOM
      1  C          8.4310   -0.6570   -2.1250 C.3     1  UNL1        0.1270
      2  C          8.4570   -1.9120   -2.8960 C.2     1  UNL1        0.3030
      3  O          9.5590   -2.4960   -3.0780 O.2     1  UNL1       -0.2520
      4  O          7.2950   -2.4820   -3.4360 O.3     1  UNL1       -0.4810
      5  H          6.4160   -1.9980   -3.3110 H       1  UNL1        0.2960
      6  C          7.0600   -0.0050   -2.1350 C.3     1  UNL1        0.0470
      7  C          6.4960    0.0730   -0.7620 C.2     1  UNL1       -0.0470
      8  C          5.8370    1.2150   -0.3310 C.2     1  UNL1        0.0040
      9  C          6.6010   -0.9620    0.1490 C.2     1  UNL1        0.0040
     10  C          5.3140    1.3220    0.9370 C.2     1  UNL1        0.0000
     11  C          6.0760   -0.8530    1.4190 C.2     1  UNL1        0.0000
     12  C          5.4250    0.2840    1.8400 C.2     1  UNL1        0.0000
@<TRIPOS>BOND
     1     4     5    1
     2     4     2    1
     3     3     2    2
     4     2     1    1
     5     6     1    1
     6     6     7    1
     7     7     8    2
     8     7     9    1
     9     8    10    1
    10     9    11    2
    11    10    12    2
    12    11    12    1
