MODEL 1
REMARK VINA RESULT:      -7.3      0.000      0.000
REMARK SMILES O=C(O)CCc1ccccc1
REMARK SMILES IDX 4 1 2 2 1 3 3 4 5 6 6 7 7 8 11 9 8 10 10 11 9 12
REMARK H PARENT 3 5
REMARK Flexibility Score: inf
ROOT
ATOM      1  C   UNL     1       8.431  -0.657  -2.125  1.00  0.00     0.127 C 
ENDROOT
BRANCH   1   2
ATOM      2  C   UNL     1       8.457  -1.912  -2.896  1.00  0.00     0.303 C 
ATOM      3  O   UNL     1       9.559  -2.496  -3.078  1.00  0.00    -0.252 OA
BRANCH   2   4
ATOM      4  O   UNL     1       7.295  -2.482  -3.436  1.00  0.00    -0.481 OA
ATOM      5  H   UNL     1       6.416  -1.998  -3.311  1.00  0.00     0.296 HD
ENDBRANCH   2   4
ENDBRANCH   1   2
BRANCH   1   6
ATOM      6  C   UNL     1       7.060  -0.005  -2.135  1.00  0.00     0.047 C 
BRANCH   6   7
ATOM      7  C   UNL     1       6.496   0.073  -0.762  1.00  0.00    -0.047 A 
ATOM      8  C   UNL     1       5.837   1.215  -0.331  1.00  0.00     0.004 A 
ATOM      9  C   UNL     1       6.601  -0.962   0.149  1.00  0.00     0.004 A 
ATOM     10  C   UNL     1       5.314   1.322   0.937  1.00  0.00     0.000 A 
ATOM     11  C   UNL     1       6.076  -0.853   1.419  1.00  0.00     0.000 A 
ATOM     12  C   UNL     1       5.425   0.284   1.840  1.00  0.00     0.000 A 
ENDBRANCH   6   7
ENDBRANCH   1   6
TORSDOF 4
ENDMDL
MODEL 2
REMARK VINA RESULT:      -7.3      0.047      1.421
REMARK SMILES O=C(O)CCc1ccccc1
REMARK SMILES IDX 4 1 2 2 1 3 3 4 5 6 6 7 7 8 11 9 8 10 10 11 9 12
REMARK H PARENT 3 5
REMARK Flexibility Score: inf
ROOT
ATOM      1  C   UNL     1       8.412  -0.617  -2.164  1.00  0.00     0.127 C 
ENDROOT
BRANCH   1   2
ATOM      2  C   UNL     1       8.457  -1.890  -2.905  1.00  0.00     0.303 C 
ATOM      3  O   UNL     1       9.570  -2.457  -3.081  1.00  0.00    -0.252 OA
BRANCH   2   4
ATOM      4  O   UNL     1       7.303  -2.497  -3.422  1.00  0.00    -0.481 OA
ATOM      5  H   UNL     1       6.667  -1.935  -3.972  1.00  0.00     0.296 HD
ENDBRANCH   2   4
ENDBRANCH   1   2
BRANCH   1   6
ATOM      6  C   UNL     1       7.023  -0.002  -2.164  1.00  0.00     0.047 C 
BRANCH   6   7
ATOM      7  C   UNL     1       6.491   0.112  -0.781  1.00  0.00    -0.047 A 
ATOM      8  C   UNL     1       6.604  -0.946   0.110  1.00  0.00     0.004 A 
ATOM      9  C   UNL     1       5.859   1.249  -0.314  1.00  0.00     0.004 A 
ATOM     10  C   UNL     1       6.112  -0.876   1.393  1.00  0.00     0.000 A 
ATOM     11  C   UNL     1       5.367   1.318   0.972  1.00  0.00     0.000 A 
ATOM     12  C   UNL     1       5.481   0.264   1.849  1.00  0.00     0.000 A 
ENDBRANCH   6   7
ENDBRANCH   1   6
TORSDOF 4
ENDMDL
MODEL 3
REMARK VINA RESULT:      -6.8      3.401      5.083
REMARK SMILES O=C(O)CCc1ccccc1
REMARK SMILES IDX 4 1 2 2 1 3 3 4 5 6 6 7 7 8 11 9 8 10 10 11 9 12
REMARK H PARENT 3 5
REMARK Flexibility Score: inf
ROOT
ATOM      1  C   UNL     1       4.983   1.744   0.711  1.00  0.00     0.127 C 
ENDROOT
BRANCH   1   2
ATOM      2  C   UNL     1       4.458   1.103   1.930  1.00  0.00     0.303 C 
ATOM      3  O   UNL     1       5.143   0.206   2.493  1.00  0.00    -0.252 OA
BRANCH   2   4
ATOM      4  O   UNL     1       3.222   1.457   2.489  1.00  0.00    -0.481 OA
ATOM      5  H   UNL     1       3.139   2.353   2.951  1.00  0.00     0.296 HD
ENDBRANCH   2   4
ENDBRANCH   1   2
BRANCH   1   6
ATOM      6  C   UNL     1       6.495   1.878   0.739  1.00  0.00     0.047 C 
BRANCH   6   7
ATOM      7  C   UNL     1       7.121   1.065  -0.336  1.00  0.00    -0.047 A 
ATOM      8  C   UNL     1       8.466   1.215  -0.644  1.00  0.00     0.004 A 
ATOM      9  C   UNL     1       6.415   0.140  -1.083  1.00  0.00     0.004 A 
ATOM     10  C   UNL     1       9.073   0.486  -1.641  1.00  0.00     0.000 A 
ATOM     11  C   UNL     1       7.025  -0.590  -2.081  1.00  0.00     0.000 A 
ATOM     12  C   UNL     1       8.359  -0.435  -2.381  1.00  0.00     0.000 A 
ENDBRANCH   6   7
ENDBRANCH   1   6
TORSDOF 4
ENDMDL
MODEL 4
REMARK VINA RESULT:      -6.6      1.955      2.689
REMARK SMILES O=C(O)CCc1ccccc1
REMARK SMILES IDX 4 1 2 2 1 3 3 4 5 6 6 7 7 8 11 9 8 10 10 11 9 12
REMARK H PARENT 3 5
REMARK Flexibility Score: inf
ROOT
ATOM      1  C   UNL     1       8.297   0.265  -2.190  1.00  0.00     0.127 C 
ENDROOT
BRANCH   1   2
ATOM      2  C   UNL     1       9.414   0.391  -1.237  1.00  0.00     0.303 C 
ATOM      3  O   UNL     1       9.462  -0.386  -0.245  1.00  0.00    -0.252 OA
BRANCH   2   4
ATOM      4  O   UNL     1      10.429   1.345  -1.397  1.00  0.00    -0.481 OA
ATOM      5  H   UNL     1      11.341   1.150  -1.008  1.00  0.00     0.296 HD
ENDBRANCH   2   4
ENDBRANCH   1   2
BRANCH   1   6
ATOM      6  C   UNL     1       7.136  -0.525  -1.612  1.00  0.00     0.047 C 
BRANCH   6   7
ATOM      7  C   UNL     1       6.353   0.301  -0.656  1.00  0.00    -0.047 A 
ATOM      8  C   UNL     1       6.129  -0.138   0.641  1.00  0.00     0.004 A 
ATOM      9  C   UNL     1       5.805   1.524  -0.998  1.00  0.00     0.004 A 
ATOM     10  C   UNL     1       5.400   0.598   1.546  1.00  0.00     0.000 A 
ATOM     11  C   UNL     1       5.075   2.261  -0.090  1.00  0.00     0.000 A 
ATOM     12  C   UNL     1       4.856   1.818   1.194  1.00  0.00     0.000 A 
ENDBRANCH   6   7
ENDBRANCH   1   6
TORSDOF 4
ENDMDL
MODEL 5
REMARK VINA RESULT:      -6.6      1.889      2.909
REMARK SMILES O=C(O)CCc1ccccc1
REMARK SMILES IDX 4 1 2 2 1 3 3 4 5 6 6 7 7 8 11 9 8 10 10 11 9 12
REMARK H PARENT 3 5
REMARK Flexibility Score: inf
ROOT
ATOM      1  C   UNL     1       8.181  -1.697   1.164  1.00  0.00     0.127 C 
ENDROOT
BRANCH   1   2
ATOM      2  C   UNL     1       8.527  -2.872   0.344  1.00  0.00     0.303 C 
ATOM      3  O   UNL     1       9.209  -3.799   0.860  1.00  0.00    -0.252 OA
BRANCH   2   4
ATOM      4  O   UNL     1       8.123  -2.996  -0.993  1.00  0.00    -0.481 OA
ATOM      5  H   UNL     1       8.548  -2.395  -1.685  1.00  0.00     0.296 HD
ENDBRANCH   2   4
ENDBRANCH   1   2
BRANCH   1   6
ATOM      6  C   UNL     1       6.686  -1.586   1.405  1.00  0.00     0.047 C 
BRANCH   6   7
ATOM      7  C   UNL     1       6.154  -0.304   0.873  1.00  0.00    -0.047 A 
ATOM      8  C   UNL     1       6.417   0.083  -0.434  1.00  0.00     0.004 A 
ATOM      9  C   UNL     1       5.393   0.564   1.634  1.00  0.00     0.004 A 
ATOM     10  C   UNL     1       5.948   1.268  -0.953  1.00  0.00     0.000 A 
ATOM     11  C   UNL     1       4.924   1.750   1.113  1.00  0.00     0.000 A 
ATOM     12  C   UNL     1       5.190   2.128  -0.184  1.00  0.00     0.000 A 
ENDBRANCH   6   7
ENDBRANCH   1   6
TORSDOF 4
ENDMDL
