@<TRIPOS>MOLECULE
/home/cewinharhar/GITHUB/reincatalyze/data/processed/docking_pred/2023-Apr-25-2248_maxeplen10_maxtrainstep1000_exh16_gamma099_lrac3e-4_lrcr1e-3/d17de8b65df071edc80e577bc10846f04a34e0dd_ligand_2.pdbqt
 12 12 0 0 0
SMALL
GASTEIGER

@<TRIPOS>ATOM
      1  C          8.4260   -0.6760   -2.0870 C.3     1  UNL1        0.1270
      2  C          8.4110   -1.9200   -2.8770 C.2     1  UNL1        0.3030
      3  O          7.3030   -2.4160   -3.2150 O.2     1  UNL1       -0.2520
      4  O          9.5900   -2.5720   -3.2670 O.3     1  UNL1       -0.4810
      5  H         10.1370   -3.0460   -2.5610 H       1  UNL1        0.2960
      6  C          7.0900    0.0450   -2.1250 C.3     1  UNL1        0.0470
      7  C          6.5010    0.1470   -0.7640 C.2     1  UNL1       -0.0470
      8  C          6.6180   -0.9010    0.1380 C.2     1  UNL1        0.0040
      9  C          5.8090    1.2620   -0.3310 C.2     1  UNL1        0.0040
     10  C          6.0750   -0.8420    1.4010 C.2     1  UNL1        0.0000
     11  C          5.2650    1.3200    0.9350 C.2     1  UNL1        0.0000
     12  C          5.3840    0.2760    1.8240 C.2     1  UNL1        0.0000
@<TRIPOS>BOND
     1     4     2    1
     2     4     5    1
     3     3     2    2
     4     2     1    1
     5     6     1    1
     6     6     7    1
     7     7     9    2
     8     7     8    1
     9     9    11    1
    10     8    10    2
    11    11    12    2
    12    10    12    1
