@<TRIPOS>MOLECULE
/home/cewinharhar/GITHUB/reincatalyze/data/processed/docking_pred/2023-Apr-25-2248_maxeplen10_maxtrainstep1000_exh16_gamma099_lrac3e-4_lrcr1e-3/d17de8b65df071edc80e577bc10846f04a34e0dd_ligand_2.pdbqt
 12 12 0 0 0
SMALL
GASTEIGER

@<TRIPOS>ATOM
      1  C          8.0430   -2.2810    0.7100 C.3     1  UNL1        0.1270
      2  C          8.8190   -3.4590    0.2820 C.2     1  UNL1        0.3030
      3  O          9.6840   -3.9390    1.0640 O.2     1  UNL1       -0.2520
      4  O          8.6270   -4.0680   -0.9660 O.3     1  UNL1       -0.4810
      5  H          7.7180   -4.4550   -1.1810 H       1  UNL1        0.2960
      6  C          7.4630   -1.5190   -0.4680 C.3     1  UNL1        0.0470
      7  C          6.6120   -0.3920   -0.0050 C.2     1  UNL1       -0.0470
      8  C          6.0730   -0.3900    1.2730 C.2     1  UNL1        0.0040
      9  C          6.3060    0.6930   -0.8070 C.2     1  UNL1        0.0040
     10  C          5.2730    0.6330    1.7280 C.2     1  UNL1        0.0000
     11  C          5.5040    1.7170   -0.3500 C.2     1  UNL1        0.0000
     12  C          4.9720    1.7110    0.9200 C.2     1  UNL1        0.0000
@<TRIPOS>BOND
     1     5     4    1
     2     4     2    1
     3     9    11    1
     4     9     7    2
     5     6     7    1
     6     6     1    1
     7    11    12    2
     8     7     8    1
     9     2     1    1
    10     2     3    2
    11    12    10    1
    12     8    10    2
