MODEL 1
REMARK VINA RESULT:      -7.3      0.000      0.000
REMARK SMILES O=C(O)CCc1ccccc1
REMARK SMILES IDX 4 1 2 2 1 3 3 4 5 6 6 7 7 8 11 9 8 10 10 11 9 12
REMARK H PARENT 3 5
REMARK Flexibility Score: inf
ROOT
ATOM      1  C   UNL     1       8.426  -0.676  -2.087  1.00  0.00     0.127 C 
ENDROOT
BRANCH   1   2
ATOM      2  C   UNL     1       8.411  -1.920  -2.877  1.00  0.00     0.303 C 
ATOM      3  O   UNL     1       7.303  -2.416  -3.215  1.00  0.00    -0.252 OA
BRANCH   2   4
ATOM      4  O   UNL     1       9.590  -2.572  -3.267  1.00  0.00    -0.481 OA
ATOM      5  H   UNL     1      10.137  -3.046  -2.561  1.00  0.00     0.296 HD
ENDBRANCH   2   4
ENDBRANCH   1   2
BRANCH   1   6
ATOM      6  C   UNL     1       7.090   0.045  -2.125  1.00  0.00     0.047 C 
BRANCH   6   7
ATOM      7  C   UNL     1       6.501   0.147  -0.764  1.00  0.00    -0.047 A 
ATOM      8  C   UNL     1       6.618  -0.901   0.138  1.00  0.00     0.004 A 
ATOM      9  C   UNL     1       5.809   1.262  -0.331  1.00  0.00     0.004 A 
ATOM     10  C   UNL     1       6.075  -0.842   1.401  1.00  0.00     0.000 A 
ATOM     11  C   UNL     1       5.265   1.320   0.935  1.00  0.00     0.000 A 
ATOM     12  C   UNL     1       5.384   0.276   1.824  1.00  0.00     0.000 A 
ENDBRANCH   6   7
ENDBRANCH   1   6
TORSDOF 4
ENDMDL
MODEL 2
REMARK VINA RESULT:      -7.2      0.138      1.426
REMARK SMILES O=C(O)CCc1ccccc1
REMARK SMILES IDX 4 1 2 2 1 3 3 4 5 6 6 7 7 8 11 9 8 10 10 11 9 12
REMARK H PARENT 3 5
REMARK Flexibility Score: inf
ROOT
ATOM      1  C   UNL     1       8.417  -0.636  -2.143  1.00  0.00     0.127 C 
ENDROOT
BRANCH   1   2
ATOM      2  C   UNL     1       8.420  -1.906  -2.890  1.00  0.00     0.303 C 
ATOM      3  O   UNL     1       7.318  -2.426  -3.217  1.00  0.00    -0.252 OA
BRANCH   2   4
ATOM      4  O   UNL     1       9.607  -2.557  -3.254  1.00  0.00    -0.481 OA
ATOM      5  H   UNL     1       9.555  -3.517  -3.569  1.00  0.00     0.296 HD
ENDBRANCH   2   4
ENDBRANCH   1   2
BRANCH   1   6
ATOM      6  C   UNL     1       7.039  -0.001  -2.095  1.00  0.00     0.047 C 
BRANCH   6   7
ATOM      7  C   UNL     1       6.512   0.025  -0.706  1.00  0.00    -0.047 A 
ATOM      8  C   UNL     1       5.890   1.160  -0.206  1.00  0.00     0.004 A 
ATOM      9  C   UNL     1       6.617  -1.053   0.154  1.00  0.00     0.004 A 
ATOM     10  C   UNL     1       5.402   1.219   1.079  1.00  0.00     0.000 A 
ATOM     11  C   UNL     1       6.127  -0.992   1.441  1.00  0.00     0.000 A 
ATOM     12  C   UNL     1       5.512   0.138   1.930  1.00  0.00     0.000 A 
ENDBRANCH   6   7
ENDBRANCH   1   6
TORSDOF 4
ENDMDL
MODEL 3
REMARK VINA RESULT:      -7.1      0.631      1.514
REMARK SMILES O=C(O)CCc1ccccc1
REMARK SMILES IDX 4 1 2 2 1 3 3 4 5 6 6 7 7 8 11 9 8 10 10 11 9 12
REMARK H PARENT 3 5
REMARK Flexibility Score: inf
ROOT
ATOM      1  C   UNL     1       8.260  -0.907  -1.917  1.00  0.00     0.127 C 
ENDROOT
BRANCH   1   2
ATOM      2  C   UNL     1       8.372  -2.022  -2.874  1.00  0.00     0.303 C 
ATOM      3  O   UNL     1       9.506  -2.527  -3.097  1.00  0.00    -0.252 OA
BRANCH   2   4
ATOM      4  O   UNL     1       7.258  -2.545  -3.547  1.00  0.00    -0.481 OA
ATOM      5  H   UNL     1       6.729  -3.284  -3.104  1.00  0.00     0.296 HD
ENDBRANCH   2   4
ENDBRANCH   1   2
BRANCH   1   6
ATOM      6  C   UNL     1       7.640  -1.340  -0.601  1.00  0.00     0.047 C 
BRANCH   6   7
ATOM      7  C   UNL     1       6.718  -0.298  -0.078  1.00  0.00    -0.047 A 
ATOM      8  C   UNL     1       6.186  -0.401   1.199  1.00  0.00     0.004 A 
ATOM      9  C   UNL     1       6.337   0.805  -0.820  1.00  0.00     0.004 A 
ATOM     10  C   UNL     1       5.322   0.542   1.708  1.00  0.00     0.000 A 
ATOM     11  C   UNL     1       5.472   1.748  -0.309  1.00  0.00     0.000 A 
ATOM     12  C   UNL     1       4.947   1.638   0.959  1.00  0.00     0.000 A 
ENDBRANCH   6   7
ENDBRANCH   1   6
TORSDOF 4
ENDMDL
MODEL 4
REMARK VINA RESULT:      -6.8      3.303      5.140
REMARK SMILES O=C(O)CCc1ccccc1
REMARK SMILES IDX 4 1 2 2 1 3 3 4 5 6 6 7 7 8 11 9 8 10 10 11 9 12
REMARK H PARENT 3 5
REMARK Flexibility Score: inf
ROOT
ATOM      1  C   UNL     1       5.016   1.743   0.663  1.00  0.00     0.127 C 
ENDROOT
BRANCH   1   2
ATOM      2  C   UNL     1       4.507   1.114   1.894  1.00  0.00     0.303 C 
ATOM      3  O   UNL     1       5.210   0.240   2.471  1.00  0.00    -0.252 OA
BRANCH   2   4
ATOM      4  O   UNL     1       3.266   1.455   2.450  1.00  0.00    -0.481 OA
ATOM      5  H   UNL     1       3.251   2.014   3.293  1.00  0.00     0.296 HD
ENDBRANCH   2   4
ENDBRANCH   1   2
BRANCH   1   6
ATOM      6  C   UNL     1       6.525   1.912   0.686  1.00  0.00     0.047 C 
BRANCH   6   7
ATOM      7  C   UNL     1       7.169   1.092  -0.373  1.00  0.00    -0.047 A 
ATOM      8  C   UNL     1       6.428   0.180  -1.111  1.00  0.00     0.004 A 
ATOM      9  C   UNL     1       8.516   1.178  -0.671  1.00  0.00     0.004 A 
ATOM     10  C   UNL     1       6.997  -0.601  -2.090  1.00  0.00     0.000 A 
ATOM     11  C   UNL     1       9.085   0.395  -1.652  1.00  0.00     0.000 A 
ATOM     12  C   UNL     1       8.343  -0.508  -2.379  1.00  0.00     0.000 A 
ENDBRANCH   6   7
ENDBRANCH   1   6
TORSDOF 4
ENDMDL
MODEL 5
REMARK VINA RESULT:      -6.6      2.084      2.603
REMARK SMILES O=C(O)CCc1ccccc1
REMARK SMILES IDX 4 1 2 2 1 3 3 4 5 6 6 7 7 8 11 9 8 10 10 11 9 12
REMARK H PARENT 3 5
REMARK Flexibility Score: inf
ROOT
ATOM      1  C   UNL     1       8.043  -2.281   0.710  1.00  0.00     0.127 C 
ENDROOT
BRANCH   1   2
ATOM      2  C   UNL     1       8.819  -3.459   0.282  1.00  0.00     0.303 C 
ATOM      3  O   UNL     1       9.684  -3.939   1.064  1.00  0.00    -0.252 OA
BRANCH   2   4
ATOM      4  O   UNL     1       8.627  -4.068  -0.966  1.00  0.00    -0.481 OA
ATOM      5  H   UNL     1       7.718  -4.455  -1.181  1.00  0.00     0.296 HD
ENDBRANCH   2   4
ENDBRANCH   1   2
BRANCH   1   6
ATOM      6  C   UNL     1       7.463  -1.519  -0.468  1.00  0.00     0.047 C 
BRANCH   6   7
ATOM      7  C   UNL     1       6.612  -0.392  -0.005  1.00  0.00    -0.047 A 
ATOM      8  C   UNL     1       6.073  -0.390   1.273  1.00  0.00     0.004 A 
ATOM      9  C   UNL     1       6.306   0.693  -0.807  1.00  0.00     0.004 A 
ATOM     10  C   UNL     1       5.273   0.633   1.728  1.00  0.00     0.000 A 
ATOM     11  C   UNL     1       5.504   1.717  -0.350  1.00  0.00     0.000 A 
ATOM     12  C   UNL     1       4.972   1.711   0.920  1.00  0.00     0.000 A 
ENDBRANCH   6   7
ENDBRANCH   1   6
TORSDOF 4
ENDMDL
