@<TRIPOS>MOLECULE
/home/cewinharhar/GITHUB/reincatalyze/data/processed/docking_pred/2023-Apr-25-2248_maxeplen10_maxtrainstep1000_exh16_gamma099_lrac3e-4_lrcr1e-3/d17de8b65df071edc80e577bc10846f04a34e0dd_ligand_2.pdbqt
 12 12 0 0 0
SMALL
GASTEIGER

@<TRIPOS>ATOM
      1  C          8.2600   -0.9070   -1.9170 C.3     1  UNL1        0.1270
      2  C          8.3720   -2.0220   -2.8740 C.2     1  UNL1        0.3030
      3  O          9.5060   -2.5270   -3.0970 O.2     1  UNL1       -0.2520
      4  O          7.2580   -2.5450   -3.5470 O.3     1  UNL1       -0.4810
      5  H          6.7290   -3.2840   -3.1040 H       1  UNL1        0.2960
      6  C          7.6400   -1.3400   -0.6010 C.3     1  UNL1        0.0470
      7  C          6.7180   -0.2980   -0.0780 C.2     1  UNL1       -0.0470
      8  C          6.1860   -0.4010    1.1990 C.2     1  UNL1        0.0040
      9  C          6.3370    0.8050   -0.8200 C.2     1  UNL1        0.0040
     10  C          5.3220    0.5420    1.7080 C.2     1  UNL1        0.0000
     11  C          5.4720    1.7480   -0.3090 C.2     1  UNL1        0.0000
     12  C          4.9470    1.6380    0.9590 C.2     1  UNL1        0.0000
@<TRIPOS>BOND
     1     4     5    1
     2     4     2    1
     3     3     2    2
     4     2     1    1
     5     1     6    1
     6     9    11    1
     7     9     7    2
     8     6     7    1
     9    11    12    2
    10     7     8    1
    11    12    10    1
    12     8    10    2
