@<TRIPOS>MOLECULE
/home/cewinharhar/GITHUB/reincatalyze/data/processed/docking_pred/2023-Apr-25-2248_maxeplen10_maxtrainstep1000_exh16_gamma099_lrac3e-4_lrcr1e-3/d17de8b65df071edc80e577bc10846f04a34e0dd_ligand_2.pdbqt
 12 12 0 0 0
SMALL
GASTEIGER

@<TRIPOS>ATOM
      1  C          5.0160    1.7430    0.6630 C.3     1  UNL1        0.1270
      2  C          4.5070    1.1140    1.8940 C.2     1  UNL1        0.3030
      3  O          5.2100    0.2400    2.4710 O.2     1  UNL1       -0.2520
      4  O          3.2660    1.4550    2.4500 O.3     1  UNL1       -0.4810
      5  H          3.2510    2.0140    3.2930 H       1  UNL1        0.2960
      6  C          6.5250    1.9120    0.6860 C.3     1  UNL1        0.0470
      7  C          7.1690    1.0920   -0.3730 C.2     1  UNL1       -0.0470
      8  C          6.4280    0.1800   -1.1110 C.2     1  UNL1        0.0040
      9  C          8.5160    1.1780   -0.6710 C.2     1  UNL1        0.0040
     10  C          6.9970   -0.6010   -2.0900 C.2     1  UNL1        0.0000
     11  C          9.0850    0.3950   -1.6520 C.2     1  UNL1        0.0000
     12  C          8.3430   -0.5080   -2.3790 C.2     1  UNL1        0.0000
@<TRIPOS>BOND
     1    12    10    2
     2    12    11    1
     3    10     8    1
     4    11     9    2
     5     8     7    2
     6     9     7    1
     7     7     6    1
     8     1     6    1
     9     1     2    1
    10     2     4    1
    11     2     3    2
    12     4     5    1
