@<TRIPOS>MOLECULE
/home/cewinharhar/GITHUB/reincatalyze/data/processed/docking_pred/2023-Apr-25-2248_maxeplen10_maxtrainstep1000_exh16_gamma099_lrac3e-4_lrcr1e-3/d17de8b65df071edc80e577bc10846f04a34e0dd_ligand_2.pdbqt
 12 12 0 0 0
SMALL
GASTEIGER

@<TRIPOS>ATOM
      1  C          8.4170   -0.6360   -2.1430 C.3     1  UNL1        0.1270
      2  C          8.4200   -1.9060   -2.8900 C.2     1  UNL1        0.3030
      3  O          7.3180   -2.4260   -3.2170 O.2     1  UNL1       -0.2520
      4  O          9.6070   -2.5570   -3.2540 O.3     1  UNL1       -0.4810
      5  H          9.5550   -3.5170   -3.5690 H       1  UNL1        0.2960
      6  C          7.0390   -0.0010   -2.0950 C.3     1  UNL1        0.0470
      7  C          6.5120    0.0250   -0.7060 C.2     1  UNL1       -0.0470
      8  C          5.8900    1.1600   -0.2060 C.2     1  UNL1        0.0040
      9  C          6.6170   -1.0530    0.1540 C.2     1  UNL1        0.0040
     10  C          5.4020    1.2190    1.0790 C.2     1  UNL1        0.0000
     11  C          6.1270   -0.9920    1.4410 C.2     1  UNL1        0.0000
     12  C          5.5120    0.1380    1.9300 C.2     1  UNL1        0.0000
@<TRIPOS>BOND
     1     5     4    1
     2     4     2    1
     3     3     2    2
     4     2     1    1
     5     1     6    1
     6     6     7    1
     7     7     8    2
     8     7     9    1
     9     8    10    1
    10     9    11    2
    11    10    12    2
    12    11    12    1
