@<TRIPOS>MOLECULE
/home/cewinharhar/GITHUB/reincatalyze/data/processed/docking_pred/2023-Apr-25-2248_maxeplen10_maxtrainstep1000_exh16_gamma099_lrac3e-4_lrcr1e-3/d18fc177cce43baae8a65556dd45e7572e61ad5e_ligand_2.pdbqt
 12 12 0 0 0
SMALL
GASTEIGER

@<TRIPOS>ATOM
      1  C          8.4270   -0.6390   -2.1620 C.3     1  UNL1        0.1270
      2  C          8.4520   -1.9090   -2.9100 C.2     1  UNL1        0.3030
      3  O          9.5540   -2.4990   -3.0770 O.2     1  UNL1       -0.2520
      4  O          7.2910   -2.4860   -3.4420 O.3     1  UNL1       -0.4810
      5  H          6.3930   -2.1720   -3.0980 H       1  UNL1        0.2960
      6  C          7.0490   -0.0030   -2.1570 C.3     1  UNL1        0.0470
      7  C          6.4980    0.0630   -0.7780 C.2     1  UNL1       -0.0470
      8  C          5.8330    1.1980   -0.3350 C.2     1  UNL1        0.0040
      9  C          6.6230   -0.9740    0.1290 C.2     1  UNL1        0.0040
     10  C          5.3210    1.2940    0.9380 C.2     1  UNL1        0.0000
     11  C          6.1100   -0.8750    1.4040 C.2     1  UNL1        0.0000
     12  C          5.4520    0.2540    1.8360 C.2     1  UNL1        0.0000
@<TRIPOS>BOND
     1     4     5    1
     2     4     2    1
     3     3     2    2
     4     2     1    1
     5     1     6    1
     6     6     7    1
     7     7     8    2
     8     7     9    1
     9     8    10    1
    10     9    11    2
    11    10    12    2
    12    11    12    1
