@<TRIPOS>MOLECULE
/home/cewinharhar/GITHUB/reincatalyze/data/processed/docking_pred/2023-Apr-25-2248_maxeplen10_maxtrainstep1000_exh16_gamma099_lrac3e-4_lrcr1e-3/d18fc177cce43baae8a65556dd45e7572e61ad5e_ligand_2.pdbqt
 12 12 0 0 0
SMALL
GASTEIGER

@<TRIPOS>ATOM
      1  C          8.3890   -0.6770   -2.0970 C.3     1  UNL1        0.1270
      2  C          8.4110   -1.9230   -2.8830 C.2     1  UNL1        0.3030
      3  O          9.5090   -2.5200   -3.0540 O.2     1  UNL1       -0.2520
      4  O          7.2510   -2.4710   -3.4490 O.3     1  UNL1       -0.4810
      5  H          6.8640   -2.0360   -4.2760 H       1  UNL1        0.2960
      6  C          7.0180   -0.0250   -2.0930 C.3     1  UNL1        0.0470
      7  C          6.4720    0.0580   -0.7130 C.2     1  UNL1       -0.0470
      8  C          6.5890   -1.0130    0.1600 C.2     1  UNL1        0.0040
      9  C          5.8210    1.1800   -0.2330 C.2     1  UNL1        0.0040
     10  C          6.0850   -0.9710    1.4400 C.2     1  UNL1        0.0000
     11  C          5.3160    1.2200    1.0490 C.2     1  UNL1        0.0000
     12  C          5.4350    0.1530    1.9100 C.2     1  UNL1        0.0000
@<TRIPOS>BOND
     1     5     4    1
     2     4     2    1
     3     3     2    2
     4     2     1    1
     5     1     6    1
     6     6     7    1
     7     7     9    2
     8     7     8    1
     9     9    11    1
    10     8    10    2
    11    11    12    2
    12    10    12    1
