@<TRIPOS>MOLECULE
/home/cewinharhar/GITHUB/reincatalyze/data/processed/docking_pred/2023-Apr-25-2248_maxeplen10_maxtrainstep1000_exh16_gamma099_lrac3e-4_lrcr1e-3/d18fc177cce43baae8a65556dd45e7572e61ad5e_ligand_2.pdbqt
 12 12 0 0 0
SMALL
GASTEIGER

@<TRIPOS>ATOM
      1  C          5.0290    1.8240    0.7550 C.3     1  UNL1        0.1270
      2  C          4.4800    1.1280    1.9320 C.2     1  UNL1        0.3030
      3  O          5.1550    0.2100    2.4710 O.2     1  UNL1       -0.2520
      4  O          3.2290    1.4530    2.4770 O.3     1  UNL1       -0.4810
      5  H          3.1530    1.5710    3.4780 H       1  UNL1        0.2960
      6  C          6.5460    1.8820    0.7790 C.3     1  UNL1        0.0470
      7  C          7.1280    1.0730   -0.3240 C.2     1  UNL1       -0.0470
      8  C          8.4670    1.1970   -0.6620 C.2     1  UNL1        0.0040
      9  C          6.3820    0.1760   -1.0680 C.2     1  UNL1        0.0040
     10  C          9.0330    0.4700   -1.6850 C.2     1  UNL1        0.0000
     11  C          6.9500   -0.5510   -2.0910 C.2     1  UNL1        0.0000
     12  C          8.2800   -0.4210   -2.4220 C.2     1  UNL1        0.0000
@<TRIPOS>BOND
     1    12    11    2
     2    12    10    1
     3    11     9    1
     4    10     8    2
     5     9     7    2
     6     8     7    1
     7     7     6    1
     8     1     6    1
     9     1     2    1
    10     2     3    2
    11     2     4    1
    12     4     5    1
