@<TRIPOS>MOLECULE
/home/cewinharhar/GITHUB/reincatalyze/data/processed/docking_pred/2023-Apr-25-2248_maxeplen10_maxtrainstep1000_exh16_gamma099_lrac3e-4_lrcr1e-3/d18fc177cce43baae8a65556dd45e7572e61ad5e_ligand_2.pdbqt
 12 12 0 0 0
SMALL
GASTEIGER

@<TRIPOS>ATOM
      1  C          8.2380    0.2050   -2.2410 C.3     1  UNL1        0.1270
      2  C          9.3500    0.3510   -1.2860 C.2     1  UNL1        0.3030
      3  O          9.4110   -0.4250   -0.2940 O.2     1  UNL1       -0.2520
      4  O         10.3480    1.3250   -1.4420 O.3     1  UNL1       -0.4810
      5  H         10.5540    1.9350   -0.6630 H       1  UNL1        0.2960
      6  C          7.0660   -0.5540   -1.6450 C.3     1  UNL1        0.0470
      7  C          6.3100    0.2970   -0.6900 C.2     1  UNL1       -0.0470
      8  C          6.0820   -0.1290    0.6110 C.2     1  UNL1        0.0040
      9  C          5.7920    1.5320   -1.0350 C.2     1  UNL1        0.0040
     10  C          5.3770    0.6310    1.5160 C.2     1  UNL1        0.0000
     11  C          5.0860    2.2920   -0.1280 C.2     1  UNL1        0.0000
     12  C          4.8630    1.8620    1.1610 C.2     1  UNL1        0.0000
@<TRIPOS>BOND
     1     1     6    1
     2     1     2    1
     3     6     7    1
     4     4     2    1
     5     4     5    1
     6     2     3    2
     7     9     7    2
     8     9    11    1
     9     7     8    1
    10    11    12    2
    11     8    10    2
    12    12    10    1
