@<TRIPOS>MOLECULE
/home/cewinharhar/GITHUB/reincatalyze/data/processed/docking_pred/2023-Apr-25-2248_maxeplen10_maxtrainstep1000_exh16_gamma099_lrac3e-4_lrcr1e-3/d18fc177cce43baae8a65556dd45e7572e61ad5e_ligand_2.pdbqt
 12 12 0 0 0
SMALL
GASTEIGER

@<TRIPOS>ATOM
      1  C          5.3380    2.9490    0.1580 C.3     1  UNL1        0.1270
      2  C          6.2260    3.8710    0.8890 C.2     1  UNL1        0.3030
      3  O          6.8770    4.7360    0.2420 O.2     1  UNL1       -0.2520
      4  O          6.3730    3.8210    2.2830 O.3     1  UNL1       -0.4810
      5  H          6.5180    4.6870    2.7850 H       1  UNL1        0.2960
      6  C          5.2170    1.6020    0.8480 C.3     1  UNL1        0.0470
      7  C          6.0070    0.5660    0.1330 C.2     1  UNL1       -0.0470
      8  C          6.4840   -0.5490    0.8070 C.2     1  UNL1        0.0040
      9  C          6.3140    0.6540   -1.2120 C.2     1  UNL1        0.0040
     10  C          7.2270   -1.5210    0.1770 C.2     1  UNL1        0.0000
     11  C          7.0580   -0.3210   -1.8420 C.2     1  UNL1        0.0000
     12  C          7.5300   -1.4230   -1.1660 C.2     1  UNL1        0.0000
@<TRIPOS>BOND
     1    11     9    1
     2    11    12    2
     3     9     7    2
     4    12    10    1
     5     7     8    1
     6     7     6    1
     7     1     6    1
     8     1     2    1
     9    10     8    2
    10     3     2    2
    11     2     4    1
    12     4     5    1
