MODEL 1
REMARK VINA RESULT:      -7.3      0.000      0.000
REMARK SMILES O=C(O)CCc1ccccc1
REMARK SMILES IDX 4 1 2 2 1 3 3 4 5 6 6 7 7 8 11 9 8 10 10 11 9 12
REMARK H PARENT 3 5
REMARK Flexibility Score: inf
ROOT
ATOM      1  C   UNL     1       8.427  -0.639  -2.162  1.00  0.00     0.127 C 
ENDROOT
BRANCH   1   2
ATOM      2  C   UNL     1       8.452  -1.909  -2.910  1.00  0.00     0.303 C 
ATOM      3  O   UNL     1       9.554  -2.499  -3.077  1.00  0.00    -0.252 OA
BRANCH   2   4
ATOM      4  O   UNL     1       7.291  -2.486  -3.442  1.00  0.00    -0.481 OA
ATOM      5  H   UNL     1       6.393  -2.172  -3.098  1.00  0.00     0.296 HD
ENDBRANCH   2   4
ENDBRANCH   1   2
BRANCH   1   6
ATOM      6  C   UNL     1       7.049  -0.003  -2.157  1.00  0.00     0.047 C 
BRANCH   6   7
ATOM      7  C   UNL     1       6.498   0.063  -0.778  1.00  0.00    -0.047 A 
ATOM      8  C   UNL     1       5.833   1.198  -0.335  1.00  0.00     0.004 A 
ATOM      9  C   UNL     1       6.623  -0.974   0.129  1.00  0.00     0.004 A 
ATOM     10  C   UNL     1       5.321   1.294   0.938  1.00  0.00     0.000 A 
ATOM     11  C   UNL     1       6.110  -0.875   1.404  1.00  0.00     0.000 A 
ATOM     12  C   UNL     1       5.452   0.254   1.836  1.00  0.00     0.000 A 
ENDBRANCH   6   7
ENDBRANCH   1   6
TORSDOF 4
ENDMDL
MODEL 2
REMARK VINA RESULT:      -7.3      0.088      1.423
REMARK SMILES O=C(O)CCc1ccccc1
REMARK SMILES IDX 4 1 2 2 1 3 3 4 5 6 6 7 7 8 11 9 8 10 10 11 9 12
REMARK H PARENT 3 5
REMARK Flexibility Score: inf
ROOT
ATOM      1  C   UNL     1       8.389  -0.677  -2.097  1.00  0.00     0.127 C 
ENDROOT
BRANCH   1   2
ATOM      2  C   UNL     1       8.411  -1.923  -2.883  1.00  0.00     0.303 C 
ATOM      3  O   UNL     1       9.509  -2.520  -3.054  1.00  0.00    -0.252 OA
BRANCH   2   4
ATOM      4  O   UNL     1       7.251  -2.471  -3.449  1.00  0.00    -0.481 OA
ATOM      5  H   UNL     1       6.864  -2.036  -4.276  1.00  0.00     0.296 HD
ENDBRANCH   2   4
ENDBRANCH   1   2
BRANCH   1   6
ATOM      6  C   UNL     1       7.018  -0.025  -2.093  1.00  0.00     0.047 C 
BRANCH   6   7
ATOM      7  C   UNL     1       6.472   0.058  -0.713  1.00  0.00    -0.047 A 
ATOM      8  C   UNL     1       6.589  -1.013   0.160  1.00  0.00     0.004 A 
ATOM      9  C   UNL     1       5.821   1.180  -0.233  1.00  0.00     0.004 A 
ATOM     10  C   UNL     1       6.085  -0.971   1.440  1.00  0.00     0.000 A 
ATOM     11  C   UNL     1       5.316   1.220   1.049  1.00  0.00     0.000 A 
ATOM     12  C   UNL     1       5.435   0.153   1.910  1.00  0.00     0.000 A 
ENDBRANCH   6   7
ENDBRANCH   1   6
TORSDOF 4
ENDMDL
MODEL 3
REMARK VINA RESULT:      -6.8      3.398      5.081
REMARK SMILES O=C(O)CCc1ccccc1
REMARK SMILES IDX 4 1 2 2 1 3 3 4 5 6 6 7 7 8 11 9 8 10 10 11 9 12
REMARK H PARENT 3 5
REMARK Flexibility Score: inf
ROOT
ATOM      1  C   UNL     1       5.029   1.824   0.755  1.00  0.00     0.127 C 
ENDROOT
BRANCH   1   2
ATOM      2  C   UNL     1       4.480   1.128   1.932  1.00  0.00     0.303 C 
ATOM      3  O   UNL     1       5.155   0.210   2.471  1.00  0.00    -0.252 OA
BRANCH   2   4
ATOM      4  O   UNL     1       3.229   1.453   2.477  1.00  0.00    -0.481 OA
ATOM      5  H   UNL     1       3.153   1.571   3.478  1.00  0.00     0.296 HD
ENDBRANCH   2   4
ENDBRANCH   1   2
BRANCH   1   6
ATOM      6  C   UNL     1       6.546   1.882   0.779  1.00  0.00     0.047 C 
BRANCH   6   7
ATOM      7  C   UNL     1       7.128   1.073  -0.324  1.00  0.00    -0.047 A 
ATOM      8  C   UNL     1       8.467   1.197  -0.662  1.00  0.00     0.004 A 
ATOM      9  C   UNL     1       6.382   0.176  -1.068  1.00  0.00     0.004 A 
ATOM     10  C   UNL     1       9.033   0.470  -1.685  1.00  0.00     0.000 A 
ATOM     11  C   UNL     1       6.950  -0.551  -2.091  1.00  0.00     0.000 A 
ATOM     12  C   UNL     1       8.280  -0.421  -2.422  1.00  0.00     0.000 A 
ENDBRANCH   6   7
ENDBRANCH   1   6
TORSDOF 4
ENDMDL
MODEL 4
REMARK VINA RESULT:      -6.6      1.930      2.672
REMARK SMILES O=C(O)CCc1ccccc1
REMARK SMILES IDX 4 1 2 2 1 3 3 4 5 6 6 7 7 8 11 9 8 10 10 11 9 12
REMARK H PARENT 3 5
REMARK Flexibility Score: inf
ROOT
ATOM      1  C   UNL     1       8.238   0.205  -2.241  1.00  0.00     0.127 C 
ENDROOT
BRANCH   1   2
ATOM      2  C   UNL     1       9.350   0.351  -1.286  1.00  0.00     0.303 C 
ATOM      3  O   UNL     1       9.411  -0.425  -0.294  1.00  0.00    -0.252 OA
BRANCH   2   4
ATOM      4  O   UNL     1      10.348   1.325  -1.442  1.00  0.00    -0.481 OA
ATOM      5  H   UNL     1      10.554   1.935  -0.663  1.00  0.00     0.296 HD
ENDBRANCH   2   4
ENDBRANCH   1   2
BRANCH   1   6
ATOM      6  C   UNL     1       7.066  -0.554  -1.645  1.00  0.00     0.047 C 
BRANCH   6   7
ATOM      7  C   UNL     1       6.310   0.297  -0.690  1.00  0.00    -0.047 A 
ATOM      8  C   UNL     1       6.082  -0.129   0.611  1.00  0.00     0.004 A 
ATOM      9  C   UNL     1       5.792   1.532  -1.035  1.00  0.00     0.004 A 
ATOM     10  C   UNL     1       5.377   0.631   1.516  1.00  0.00     0.000 A 
ATOM     11  C   UNL     1       5.086   2.292  -0.128  1.00  0.00     0.000 A 
ATOM     12  C   UNL     1       4.863   1.862   1.161  1.00  0.00     0.000 A 
ENDBRANCH   6   7
ENDBRANCH   1   6
TORSDOF 4
ENDMDL
MODEL 5
REMARK VINA RESULT:      -6.5      3.758      5.136
REMARK SMILES O=C(O)CCc1ccccc1
REMARK SMILES IDX 4 1 2 2 1 3 3 4 5 6 6 7 7 8 11 9 8 10 10 11 9 12
REMARK H PARENT 3 5
REMARK Flexibility Score: inf
ROOT
ATOM      1  C   UNL     1       5.338   2.949   0.158  1.00  0.00     0.127 C 
ENDROOT
BRANCH   1   2
ATOM      2  C   UNL     1       6.226   3.871   0.889  1.00  0.00     0.303 C 
ATOM      3  O   UNL     1       6.877   4.736   0.242  1.00  0.00    -0.252 OA
BRANCH   2   4
ATOM      4  O   UNL     1       6.373   3.821   2.283  1.00  0.00    -0.481 OA
ATOM      5  H   UNL     1       6.518   4.687   2.785  1.00  0.00     0.296 HD
ENDBRANCH   2   4
ENDBRANCH   1   2
BRANCH   1   6
ATOM      6  C   UNL     1       5.217   1.602   0.848  1.00  0.00     0.047 C 
BRANCH   6   7
ATOM      7  C   UNL     1       6.007   0.566   0.133  1.00  0.00    -0.047 A 
ATOM      8  C   UNL     1       6.484  -0.549   0.807  1.00  0.00     0.004 A 
ATOM      9  C   UNL     1       6.314   0.654  -1.212  1.00  0.00     0.004 A 
ATOM     10  C   UNL     1       7.227  -1.521   0.177  1.00  0.00     0.000 A 
ATOM     11  C   UNL     1       7.058  -0.321  -1.842  1.00  0.00     0.000 A 
ATOM     12  C   UNL     1       7.530  -1.423  -1.166  1.00  0.00     0.000 A 
ENDBRANCH   6   7
ENDBRANCH   1   6
TORSDOF 4
ENDMDL
