@<TRIPOS>MOLECULE
/home/cewinharhar/GITHUB/reincatalyze/data/processed/docking_pred/2023-Apr-25-2248_maxeplen10_maxtrainstep1000_exh16_gamma099_lrac3e-4_lrcr1e-3/d27e6afc186b75c76b7fe435f4b9560b42cd14a2_ligand_2.pdbqt
 12 12 0 0 0
SMALL
GASTEIGER

@<TRIPOS>ATOM
      1  C          8.5150    0.6900   -1.6700 C.3     1  UNL1        0.1270
      2  C          9.6620    0.3010   -0.8290 C.2     1  UNL1        0.3030
      3  O          9.4800   -0.5150    0.1140 O.2     1  UNL1       -0.2520
      4  O         10.9520    0.8080   -1.0430 O.3     1  UNL1       -0.4810
      5  H         11.1390    1.3040   -1.9040 H       1  UNL1        0.2960
      6  C          7.3120   -0.2090   -1.4510 C.3     1  UNL1        0.0470
      7  C          6.4240    0.3380   -0.3920 C.2     1  UNL1       -0.0470
      8  C          6.2100   -0.3640    0.7860 C.2     1  UNL1        0.0040
      9  C          5.7640    1.5470   -0.5200 C.2     1  UNL1        0.0040
     10  C          5.3860    0.1110    1.7800 C.2     1  UNL1        0.0000
     11  C          4.9390    2.0210    0.4770 C.2     1  UNL1        0.0000
     12  C          4.7310    1.3190    1.6420 C.2     1  UNL1        0.0000
@<TRIPOS>BOND
     1     5     4    1
     2     1     6    1
     3     1     2    1
     4     6     7    1
     5     4     2    1
     6     2     3    2
     7     9     7    2
     8     9    11    1
     9     7     8    1
    10    11    12    2
    11     8    10    2
    12    12    10    1
