MODEL 1
REMARK VINA RESULT:      -7.3      0.000      0.000
REMARK SMILES O=C(O)CCc1ccccc1
REMARK SMILES IDX 4 1 2 2 1 3 3 4 5 6 6 7 7 8 11 9 8 10 10 11 9 12
REMARK H PARENT 3 5
REMARK Flexibility Score: inf
ROOT
ATOM      1  C   UNL     1       8.388  -0.664  -2.113  1.00  0.00     0.127 C 
ENDROOT
BRANCH   1   2
ATOM      2  C   UNL     1       8.390  -1.914  -2.894  1.00  0.00     0.303 C 
ATOM      3  O   UNL     1       7.289  -2.414  -3.251  1.00  0.00    -0.252 OA
BRANCH   2   4
ATOM      4  O   UNL     1       9.576  -2.568  -3.257  1.00  0.00    -0.481 OA
ATOM      5  H   UNL     1       9.520  -3.518  -3.598  1.00  0.00     0.296 HD
ENDBRANCH   2   4
ENDBRANCH   1   2
BRANCH   1   6
ATOM      6  C   UNL     1       7.027   0.009  -2.111  1.00  0.00     0.047 C 
BRANCH   6   7
ATOM      7  C   UNL     1       6.471   0.079  -0.734  1.00  0.00    -0.047 A 
ATOM      8  C   UNL     1       5.801   1.214  -0.299  1.00  0.00     0.004 A 
ATOM      9  C   UNL     1       6.593  -0.954   0.176  1.00  0.00     0.004 A 
ATOM     10  C   UNL     1       5.284   1.314   0.972  1.00  0.00     0.000 A 
ATOM     11  C   UNL     1       6.074  -0.852   1.449  1.00  0.00     0.000 A 
ATOM     12  C   UNL     1       5.412   0.277   1.874  1.00  0.00     0.000 A 
ENDBRANCH   6   7
ENDBRANCH   1   6
TORSDOF 4
ENDMDL
MODEL 2
REMARK VINA RESULT:      -7.3      0.028      1.421
REMARK SMILES O=C(O)CCc1ccccc1
REMARK SMILES IDX 4 1 2 2 1 3 3 4 5 6 6 7 7 8 11 9 8 10 10 11 9 12
REMARK H PARENT 3 5
REMARK Flexibility Score: inf
ROOT
ATOM      1  C   UNL     1       8.383  -0.658  -2.107  1.00  0.00     0.127 C 
ENDROOT
BRANCH   1   2
ATOM      2  C   UNL     1       8.390  -1.909  -2.886  1.00  0.00     0.303 C 
ATOM      3  O   UNL     1       7.291  -2.413  -3.245  1.00  0.00    -0.252 OA
BRANCH   2   4
ATOM      4  O   UNL     1       9.579  -2.561  -3.243  1.00  0.00    -0.481 OA
ATOM      5  H   UNL     1       9.615  -3.569  -3.181  1.00  0.00     0.296 HD
ENDBRANCH   2   4
ENDBRANCH   1   2
BRANCH   1   6
ATOM      6  C   UNL     1       7.024   0.020  -2.124  1.00  0.00     0.047 C 
BRANCH   6   7
ATOM      7  C   UNL     1       6.468   0.132  -0.750  1.00  0.00    -0.047 A 
ATOM      8  C   UNL     1       6.604  -0.911   0.155  1.00  0.00     0.004 A 
ATOM      9  C   UNL     1       5.788   1.251  -0.307  1.00  0.00     0.004 A 
ATOM     10  C   UNL     1       6.091  -0.842   1.430  1.00  0.00     0.000 A 
ATOM     11  C   UNL     1       5.275   1.318   0.971  1.00  0.00     0.000 A 
ATOM     12  C   UNL     1       5.413   0.279   1.863  1.00  0.00     0.000 A 
ENDBRANCH   6   7
ENDBRANCH   1   6
TORSDOF 4
ENDMDL
MODEL 3
REMARK VINA RESULT:      -6.8      3.331      5.166
REMARK SMILES O=C(O)CCc1ccccc1
REMARK SMILES IDX 4 1 2 2 1 3 3 4 5 6 6 7 7 8 11 9 8 10 10 11 9 12
REMARK H PARENT 3 5
REMARK Flexibility Score: inf
ROOT
ATOM      1  C   UNL     1       4.990   1.777   0.721  1.00  0.00     0.127 C 
ENDROOT
BRANCH   1   2
ATOM      2  C   UNL     1       4.468   1.114   1.929  1.00  0.00     0.303 C 
ATOM      3  O   UNL     1       5.160   0.217   2.482  1.00  0.00    -0.252 OA
BRANCH   2   4
ATOM      4  O   UNL     1       3.226   1.448   2.487  1.00  0.00    -0.481 OA
ATOM      5  H   UNL     1       2.839   2.361   2.293  1.00  0.00     0.296 HD
ENDBRANCH   2   4
ENDBRANCH   1   2
BRANCH   1   6
ATOM      6  C   UNL     1       6.503   1.902   0.743  1.00  0.00     0.047 C 
BRANCH   6   7
ATOM      7  C   UNL     1       7.121   1.090  -0.338  1.00  0.00    -0.047 A 
ATOM      8  C   UNL     1       8.468   1.224  -0.642  1.00  0.00     0.004 A 
ATOM      9  C   UNL     1       6.404   0.182  -1.095  1.00  0.00     0.004 A 
ATOM     10  C   UNL     1       9.067   0.495  -1.643  1.00  0.00     0.000 A 
ATOM     11  C   UNL     1       7.005  -0.548  -2.098  1.00  0.00     0.000 A 
ATOM     12  C   UNL     1       8.342  -0.408  -2.394  1.00  0.00     0.000 A 
ENDBRANCH   6   7
ENDBRANCH   1   6
TORSDOF 4
ENDMDL
MODEL 4
REMARK VINA RESULT:      -6.6      2.082      2.829
REMARK SMILES O=C(O)CCc1ccccc1
REMARK SMILES IDX 4 1 2 2 1 3 3 4 5 6 6 7 7 8 11 9 8 10 10 11 9 12
REMARK H PARENT 3 5
REMARK Flexibility Score: inf
ROOT
ATOM      1  C   UNL     1       7.975  -2.282   0.713  1.00  0.00     0.127 C 
ENDROOT
BRANCH   1   2
ATOM      2  C   UNL     1       8.785  -3.442   0.298  1.00  0.00     0.303 C 
ATOM      3  O   UNL     1       9.660  -3.891   1.087  1.00  0.00    -0.252 OA
BRANCH   2   4
ATOM      4  O   UNL     1       8.615  -4.066  -0.946  1.00  0.00    -0.481 OA
ATOM      5  H   UNL     1       8.952  -5.012  -1.063  1.00  0.00     0.296 HD
ENDBRANCH   2   4
ENDBRANCH   1   2
BRANCH   1   6
ATOM      6  C   UNL     1       7.486  -1.471  -0.473  1.00  0.00     0.047 C 
BRANCH   6   7
ATOM      7  C   UNL     1       6.623  -0.345  -0.028  1.00  0.00    -0.047 A 
ATOM      8  C   UNL     1       6.092  -0.324   1.254  1.00  0.00     0.004 A 
ATOM      9  C   UNL     1       6.298   0.719  -0.850  1.00  0.00     0.004 A 
ATOM     10  C   UNL     1       5.282   0.698   1.692  1.00  0.00     0.000 A 
ATOM     11  C   UNL     1       5.487   1.742  -0.409  1.00  0.00     0.000 A 
ATOM     12  C   UNL     1       4.962   1.755   0.864  1.00  0.00     0.000 A 
ENDBRANCH   6   7
ENDBRANCH   1   6
TORSDOF 4
ENDMDL
MODEL 5
REMARK VINA RESULT:      -6.5      2.057      2.645
REMARK SMILES O=C(O)CCc1ccccc1
REMARK SMILES IDX 4 1 2 2 1 3 3 4 5 6 6 7 7 8 11 9 8 10 10 11 9 12
REMARK H PARENT 3 5
REMARK Flexibility Score: inf
ROOT
ATOM      1  C   UNL     1       8.515   0.690  -1.670  1.00  0.00     0.127 C 
ENDROOT
BRANCH   1   2
ATOM      2  C   UNL     1       9.662   0.301  -0.829  1.00  0.00     0.303 C 
ATOM      3  O   UNL     1       9.480  -0.515   0.114  1.00  0.00    -0.252 OA
BRANCH   2   4
ATOM      4  O   UNL     1      10.952   0.808  -1.043  1.00  0.00    -0.481 OA
ATOM      5  H   UNL     1      11.139   1.304  -1.904  1.00  0.00     0.296 HD
ENDBRANCH   2   4
ENDBRANCH   1   2
BRANCH   1   6
ATOM      6  C   UNL     1       7.312  -0.209  -1.451  1.00  0.00     0.047 C 
BRANCH   6   7
ATOM      7  C   UNL     1       6.424   0.338  -0.392  1.00  0.00    -0.047 A 
ATOM      8  C   UNL     1       6.210  -0.364   0.786  1.00  0.00     0.004 A 
ATOM      9  C   UNL     1       5.764   1.547  -0.520  1.00  0.00     0.004 A 
ATOM     10  C   UNL     1       5.386   0.111   1.780  1.00  0.00     0.000 A 
ATOM     11  C   UNL     1       4.939   2.021   0.477  1.00  0.00     0.000 A 
ATOM     12  C   UNL     1       4.731   1.319   1.642  1.00  0.00     0.000 A 
ENDBRANCH   6   7
ENDBRANCH   1   6
TORSDOF 4
ENDMDL
