@<TRIPOS>MOLECULE
/home/cewinharhar/GITHUB/reincatalyze/data/processed/docking_pred/2023-Apr-25-2248_maxeplen10_maxtrainstep1000_exh16_gamma099_lrac3e-4_lrcr1e-3/d27e6afc186b75c76b7fe435f4b9560b42cd14a2_ligand_2.pdbqt
 12 12 0 0 0
SMALL
GASTEIGER

@<TRIPOS>ATOM
      1  C          7.9750   -2.2820    0.7130 C.3     1  UNL1        0.1270
      2  C          8.7850   -3.4420    0.2980 C.2     1  UNL1        0.3030
      3  O          9.6600   -3.8910    1.0870 O.2     1  UNL1       -0.2520
      4  O          8.6150   -4.0660   -0.9460 O.3     1  UNL1       -0.4810
      5  H          8.9520   -5.0120   -1.0630 H       1  UNL1        0.2960
      6  C          7.4860   -1.4710   -0.4730 C.3     1  UNL1        0.0470
      7  C          6.6230   -0.3450   -0.0280 C.2     1  UNL1       -0.0470
      8  C          6.0920   -0.3240    1.2540 C.2     1  UNL1        0.0040
      9  C          6.2980    0.7190   -0.8500 C.2     1  UNL1        0.0040
     10  C          5.2820    0.6980    1.6920 C.2     1  UNL1        0.0000
     11  C          5.4870    1.7420   -0.4090 C.2     1  UNL1        0.0000
     12  C          4.9620    1.7550    0.8640 C.2     1  UNL1        0.0000
@<TRIPOS>BOND
     1     5     4    1
     2     4     2    1
     3     9    11    1
     4     9     7    2
     5     6     7    1
     6     6     1    1
     7    11    12    2
     8     7     8    1
     9     2     1    1
    10     2     3    2
    11    12    10    1
    12     8    10    2
