@<TRIPOS>MOLECULE
/home/cewinharhar/GITHUB/reincatalyze/data/processed/docking_pred/2023-Apr-25-2248_maxeplen10_maxtrainstep1000_exh16_gamma099_lrac3e-4_lrcr1e-3/d27e6afc186b75c76b7fe435f4b9560b42cd14a2_ligand_2.pdbqt
 12 12 0 0 0
SMALL
GASTEIGER

@<TRIPOS>ATOM
      1  C          8.3830   -0.6580   -2.1070 C.3     1  UNL1        0.1270
      2  C          8.3900   -1.9090   -2.8860 C.2     1  UNL1        0.3030
      3  O          7.2910   -2.4130   -3.2450 O.2     1  UNL1       -0.2520
      4  O          9.5790   -2.5610   -3.2430 O.3     1  UNL1       -0.4810
      5  H          9.6150   -3.5690   -3.1810 H       1  UNL1        0.2960
      6  C          7.0240    0.0200   -2.1240 C.3     1  UNL1        0.0470
      7  C          6.4680    0.1320   -0.7500 C.2     1  UNL1       -0.0470
      8  C          6.6040   -0.9110    0.1550 C.2     1  UNL1        0.0040
      9  C          5.7880    1.2510   -0.3070 C.2     1  UNL1        0.0040
     10  C          6.0910   -0.8420    1.4300 C.2     1  UNL1        0.0000
     11  C          5.2750    1.3180    0.9710 C.2     1  UNL1        0.0000
     12  C          5.4130    0.2790    1.8630 C.2     1  UNL1        0.0000
@<TRIPOS>BOND
     1     3     2    2
     2     4     5    1
     3     4     2    1
     4     2     1    1
     5     6     1    1
     6     6     7    1
     7     7     9    2
     8     7     8    1
     9     9    11    1
    10     8    10    2
    11    11    12    2
    12    10    12    1
