@<TRIPOS>MOLECULE
/home/cewinharhar/GITHUB/reincatalyze/data/processed/docking_pred/2023-Apr-25-2248_maxeplen10_maxtrainstep1000_exh16_gamma099_lrac3e-4_lrcr1e-3/d27e6afc186b75c76b7fe435f4b9560b42cd14a2_ligand_2.pdbqt
 12 12 0 0 0
SMALL
GASTEIGER

@<TRIPOS>ATOM
      1  C          4.9900    1.7770    0.7210 C.3     1  UNL1        0.1270
      2  C          4.4680    1.1140    1.9290 C.2     1  UNL1        0.3030
      3  O          5.1600    0.2170    2.4820 O.2     1  UNL1       -0.2520
      4  O          3.2260    1.4480    2.4870 O.3     1  UNL1       -0.4810
      5  H          2.8390    2.3610    2.2930 H       1  UNL1        0.2960
      6  C          6.5030    1.9020    0.7430 C.3     1  UNL1        0.0470
      7  C          7.1210    1.0900   -0.3380 C.2     1  UNL1       -0.0470
      8  C          8.4680    1.2240   -0.6420 C.2     1  UNL1        0.0040
      9  C          6.4040    0.1820   -1.0950 C.2     1  UNL1        0.0040
     10  C          9.0670    0.4950   -1.6430 C.2     1  UNL1        0.0000
     11  C          7.0050   -0.5480   -2.0980 C.2     1  UNL1        0.0000
     12  C          8.3420   -0.4080   -2.3940 C.2     1  UNL1        0.0000
@<TRIPOS>BOND
     1    12    11    2
     2    12    10    1
     3    11     9    1
     4    10     8    2
     5     9     7    2
     6     8     7    1
     7     7     6    1
     8     1     6    1
     9     1     2    1
    10     2     3    2
    11     2     4    1
    12     5     4    1
