@<TRIPOS>MOLECULE
/home/cewinharhar/GITHUB/reincatalyze/data/processed/docking_pred/2023-Apr-25-2248_maxeplen10_maxtrainstep1000_exh16_gamma099_lrac3e-4_lrcr1e-3/d29de17412cd01c0ee6022e9d720ef028927a1a9_ligand_2.pdbqt
 12 12 0 0 0
SMALL
GASTEIGER

@<TRIPOS>ATOM
      1  C          8.3870   -0.6040   -2.1890 C.3     1  UNL1        0.1270
      2  C          8.3910   -1.8890   -2.9100 C.2     1  UNL1        0.3030
      3  O          7.2910   -2.4130   -3.2350 O.2     1  UNL1       -0.2520
      4  O          9.5800   -2.5520   -3.2500 O.3     1  UNL1       -0.4810
      5  H         10.4440   -2.2430   -2.8250 H       1  UNL1        0.2960
      6  C          7.0070    0.0280   -2.1520 C.3     1  UNL1        0.0470
      7  C          6.4770    0.0700   -0.7640 C.2     1  UNL1       -0.0470
      8  C          5.8160    1.1960   -0.2930 C.2     1  UNL1        0.0040
      9  C          6.6170   -0.9810    0.1230 C.2     1  UNL1        0.0040
     10  C          5.3230    1.2700    0.9900 C.2     1  UNL1        0.0000
     11  C          6.1230   -0.9060    1.4070 C.2     1  UNL1        0.0000
     12  C          5.4690    0.2150    1.8680 C.2     1  UNL1        0.0000
@<TRIPOS>BOND
     1     4     2    1
     2     4     5    1
     3     3     2    2
     4     2     1    1
     5     1     6    1
     6     6     7    1
     7     7     8    2
     8     7     9    1
     9     8    10    1
    10     9    11    2
    11    10    12    2
    12    11    12    1
