@<TRIPOS>MOLECULE
/home/cewinharhar/GITHUB/reincatalyze/data/processed/docking_pred/2023-Apr-25-2248_maxeplen10_maxtrainstep1000_exh16_gamma099_lrac3e-4_lrcr1e-3/d29de17412cd01c0ee6022e9d720ef028927a1a9_ligand_2.pdbqt
 12 12 0 0 0
SMALL
GASTEIGER

@<TRIPOS>ATOM
      1  C          7.3460   -1.3560   -2.0710 C.3     1  UNL1        0.1270
      2  C          8.7580   -1.3850   -2.4920 C.2     1  UNL1        0.3030
      3  O          9.5260   -0.4550   -2.1220 O.2     1  UNL1       -0.2520
      4  O          9.2790   -2.4130   -3.2900 O.3     1  UNL1       -0.4810
      5  H          9.5760   -2.1910   -4.2310 H       1  UNL1        0.2960
      6  C          7.1960   -1.4100   -0.5610 C.3     1  UNL1        0.0470
      7  C          6.4180   -0.2470   -0.0600 C.2     1  UNL1       -0.0470
      8  C          5.9340   -0.2260    1.2400 C.2     1  UNL1        0.0040
      9  C          6.1280    0.8530   -0.8460 C.2     1  UNL1        0.0040
     10  C          5.2010    0.8300    1.7300 C.2     1  UNL1        0.0000
     11  C          5.3940    1.9110   -0.3540 C.2     1  UNL1        0.0000
     12  C          4.9160    1.9240    0.9370 C.2     1  UNL1        0.0000
@<TRIPOS>BOND
     1     5     4    1
     2     4     2    1
     3     2     3    2
     4     2     1    1
     5     1     6    1
     6     9    11    1
     7     9     7    2
     8     6     7    1
     9    11    12    2
    10     7     8    1
    11    12    10    1
    12     8    10    2
