@<TRIPOS>MOLECULE
/home/cewinharhar/GITHUB/reincatalyze/data/processed/docking_pred/2023-Apr-25-2248_maxeplen10_maxtrainstep1000_exh16_gamma099_lrac3e-4_lrcr1e-3/d29de17412cd01c0ee6022e9d720ef028927a1a9_ligand_2.pdbqt
 12 12 0 0 0
SMALL
GASTEIGER

@<TRIPOS>ATOM
      1  C          8.3250    0.2020   -2.1280 C.3     1  UNL1        0.1270
      2  C          9.4440    0.3800   -1.1850 C.2     1  UNL1        0.3030
      3  O          9.5130   -0.3640   -0.1690 O.2     1  UNL1       -0.2520
      4  O         10.4370    1.3510   -1.3780 O.3     1  UNL1       -0.4810
      5  H         10.1530    2.3040   -1.5620 H       1  UNL1        0.2960
      6  C          7.1870   -0.6000   -1.5230 C.3     1  UNL1        0.0470
      7  C          6.3840    0.2350   -0.5920 C.2     1  UNL1       -0.0470
      8  C          6.1340   -0.1910    0.7050 C.2     1  UNL1        0.0040
      9  C          5.8410    1.4530   -0.9570 C.2     1  UNL1        0.0040
     10  C          5.3860    0.5530    1.5880 C.2     1  UNL1        0.0000
     11  C          5.0920    2.1980   -0.0720 C.2     1  UNL1        0.0000
     12  C          4.8480    1.7680    1.2130 C.2     1  UNL1        0.0000
@<TRIPOS>BOND
     1     1     6    1
     2     1     2    1
     3     5     4    1
     4     6     7    1
     5     4     2    1
     6     2     3    2
     7     9     7    2
     8     9    11    1
     9     7     8    1
    10    11    12    2
    11     8    10    2
    12    12    10    1
