MODEL 1
REMARK VINA RESULT:      -7.3      0.000      0.000
REMARK SMILES O=C(O)CCc1ccccc1
REMARK SMILES IDX 4 1 2 2 1 3 3 4 5 6 6 7 7 8 11 9 8 10 10 11 9 12
REMARK H PARENT 3 5
REMARK Flexibility Score: inf
ROOT
ATOM      1  C   UNL     1       8.399  -0.662  -2.108  1.00  0.00     0.127 C 
ENDROOT
BRANCH   1   2
ATOM      2  C   UNL     1       8.418  -1.909  -2.892  1.00  0.00     0.303 C 
ATOM      3  O   UNL     1       9.518  -2.498  -3.079  1.00  0.00    -0.252 OA
BRANCH   2   4
ATOM      4  O   UNL     1       7.254  -2.466  -3.440  1.00  0.00    -0.481 OA
ATOM      5  H   UNL     1       6.818  -3.242  -2.961  1.00  0.00     0.296 HD
ENDBRANCH   2   4
ENDBRANCH   1   2
BRANCH   1   6
ATOM      6  C   UNL     1       7.028  -0.010  -2.099  1.00  0.00     0.047 C 
BRANCH   6   7
ATOM      7  C   UNL     1       6.486   0.072  -0.717  1.00  0.00    -0.047 A 
ATOM      8  C   UNL     1       6.613  -0.998   0.157  1.00  0.00     0.004 A 
ATOM      9  C   UNL     1       5.830   1.190  -0.236  1.00  0.00     0.004 A 
ATOM     10  C   UNL     1       6.113  -0.957   1.439  1.00  0.00     0.000 A 
ATOM     11  C   UNL     1       5.329   1.230   1.047  1.00  0.00     0.000 A 
ATOM     12  C   UNL     1       5.458   0.164   1.909  1.00  0.00     0.000 A 
ENDBRANCH   6   7
ENDBRANCH   1   6
TORSDOF 4
ENDMDL
MODEL 2
REMARK VINA RESULT:      -7.2      0.104      1.724
REMARK SMILES O=C(O)CCc1ccccc1
REMARK SMILES IDX 4 1 2 2 1 3 3 4 5 6 6 7 7 8 11 9 8 10 10 11 9 12
REMARK H PARENT 3 5
REMARK Flexibility Score: inf
ROOT
ATOM      1  C   UNL     1       8.387  -0.604  -2.189  1.00  0.00     0.127 C 
ENDROOT
BRANCH   1   2
ATOM      2  C   UNL     1       8.391  -1.889  -2.910  1.00  0.00     0.303 C 
ATOM      3  O   UNL     1       7.291  -2.413  -3.235  1.00  0.00    -0.252 OA
BRANCH   2   4
ATOM      4  O   UNL     1       9.580  -2.552  -3.250  1.00  0.00    -0.481 OA
ATOM      5  H   UNL     1      10.444  -2.243  -2.825  1.00  0.00     0.296 HD
ENDBRANCH   2   4
ENDBRANCH   1   2
BRANCH   1   6
ATOM      6  C   UNL     1       7.007   0.028  -2.152  1.00  0.00     0.047 C 
BRANCH   6   7
ATOM      7  C   UNL     1       6.477   0.070  -0.764  1.00  0.00    -0.047 A 
ATOM      8  C   UNL     1       5.816   1.196  -0.293  1.00  0.00     0.004 A 
ATOM      9  C   UNL     1       6.617  -0.981   0.123  1.00  0.00     0.004 A 
ATOM     10  C   UNL     1       5.323   1.270   0.990  1.00  0.00     0.000 A 
ATOM     11  C   UNL     1       6.123  -0.906   1.407  1.00  0.00     0.000 A 
ATOM     12  C   UNL     1       5.469   0.215   1.868  1.00  0.00     0.000 A 
ENDBRANCH   6   7
ENDBRANCH   1   6
TORSDOF 4
ENDMDL
MODEL 3
REMARK VINA RESULT:      -7.0      1.045      1.650
REMARK SMILES O=C(O)CCc1ccccc1
REMARK SMILES IDX 4 1 2 2 1 3 3 4 5 6 6 7 7 8 11 9 8 10 10 11 9 12
REMARK H PARENT 3 5
REMARK Flexibility Score: inf
ROOT
ATOM      1  C   UNL     1       7.346  -1.356  -2.071  1.00  0.00     0.127 C 
ENDROOT
BRANCH   1   2
ATOM      2  C   UNL     1       8.758  -1.385  -2.492  1.00  0.00     0.303 C 
ATOM      3  O   UNL     1       9.526  -0.455  -2.122  1.00  0.00    -0.252 OA
BRANCH   2   4
ATOM      4  O   UNL     1       9.279  -2.413  -3.290  1.00  0.00    -0.481 OA
ATOM      5  H   UNL     1       9.576  -2.191  -4.231  1.00  0.00     0.296 HD
ENDBRANCH   2   4
ENDBRANCH   1   2
BRANCH   1   6
ATOM      6  C   UNL     1       7.196  -1.410  -0.561  1.00  0.00     0.047 C 
BRANCH   6   7
ATOM      7  C   UNL     1       6.418  -0.247  -0.060  1.00  0.00    -0.047 A 
ATOM      8  C   UNL     1       5.934  -0.226   1.240  1.00  0.00     0.004 A 
ATOM      9  C   UNL     1       6.128   0.853  -0.846  1.00  0.00     0.004 A 
ATOM     10  C   UNL     1       5.201   0.830   1.730  1.00  0.00     0.000 A 
ATOM     11  C   UNL     1       5.394   1.911  -0.354  1.00  0.00     0.000 A 
ATOM     12  C   UNL     1       4.916   1.924   0.937  1.00  0.00     0.000 A 
ENDBRANCH   6   7
ENDBRANCH   1   6
TORSDOF 4
ENDMDL
MODEL 4
REMARK VINA RESULT:      -6.8      3.386      5.068
REMARK SMILES O=C(O)CCc1ccccc1
REMARK SMILES IDX 4 1 2 2 1 3 3 4 5 6 6 7 7 8 11 9 8 10 10 11 9 12
REMARK H PARENT 3 5
REMARK Flexibility Score: inf
ROOT
ATOM      1  C   UNL     1       4.993   1.762   0.693  1.00  0.00     0.127 C 
ENDROOT
BRANCH   1   2
ATOM      2  C   UNL     1       4.479   1.110   1.910  1.00  0.00     0.303 C 
ATOM      3  O   UNL     1       5.173   0.216   2.465  1.00  0.00    -0.252 OA
BRANCH   2   4
ATOM      4  O   UNL     1       3.242   1.451   2.475  1.00  0.00    -0.481 OA
ATOM      5  H   UNL     1       2.397   1.181   1.989  1.00  0.00     0.296 HD
ENDBRANCH   2   4
ENDBRANCH   1   2
BRANCH   1   6
ATOM      6  C   UNL     1       6.503   1.922   0.721  1.00  0.00     0.047 C 
BRANCH   6   7
ATOM      7  C   UNL     1       7.144   1.116  -0.350  1.00  0.00    -0.047 A 
ATOM      8  C   UNL     1       6.399   0.219  -1.103  1.00  0.00     0.004 A 
ATOM      9  C   UNL     1       8.492   1.203  -0.647  1.00  0.00     0.004 A 
ATOM     10  C   UNL     1       6.965  -0.549  -2.094  1.00  0.00     0.000 A 
ATOM     11  C   UNL     1       9.057   0.433  -1.641  1.00  0.00     0.000 A 
ATOM     12  C   UNL     1       8.312  -0.456  -2.382  1.00  0.00     0.000 A 
ENDBRANCH   6   7
ENDBRANCH   1   6
TORSDOF 4
ENDMDL
MODEL 5
REMARK VINA RESULT:      -6.6      1.989      2.393
REMARK SMILES O=C(O)CCc1ccccc1
REMARK SMILES IDX 4 1 2 2 1 3 3 4 5 6 6 7 7 8 11 9 8 10 10 11 9 12
REMARK H PARENT 3 5
REMARK Flexibility Score: inf
ROOT
ATOM      1  C   UNL     1       8.325   0.202  -2.128  1.00  0.00     0.127 C 
ENDROOT
BRANCH   1   2
ATOM      2  C   UNL     1       9.444   0.380  -1.185  1.00  0.00     0.303 C 
ATOM      3  O   UNL     1       9.513  -0.364  -0.169  1.00  0.00    -0.252 OA
BRANCH   2   4
ATOM      4  O   UNL     1      10.437   1.351  -1.378  1.00  0.00    -0.481 OA
ATOM      5  H   UNL     1      10.153   2.304  -1.562  1.00  0.00     0.296 HD
ENDBRANCH   2   4
ENDBRANCH   1   2
BRANCH   1   6
ATOM      6  C   UNL     1       7.187  -0.600  -1.523  1.00  0.00     0.047 C 
BRANCH   6   7
ATOM      7  C   UNL     1       6.384   0.235  -0.592  1.00  0.00    -0.047 A 
ATOM      8  C   UNL     1       6.134  -0.191   0.705  1.00  0.00     0.004 A 
ATOM      9  C   UNL     1       5.841   1.453  -0.957  1.00  0.00     0.004 A 
ATOM     10  C   UNL     1       5.386   0.553   1.588  1.00  0.00     0.000 A 
ATOM     11  C   UNL     1       5.092   2.198  -0.072  1.00  0.00     0.000 A 
ATOM     12  C   UNL     1       4.848   1.768   1.213  1.00  0.00     0.000 A 
ENDBRANCH   6   7
ENDBRANCH   1   6
TORSDOF 4
ENDMDL
