@<TRIPOS>MOLECULE
/home/cewinharhar/GITHUB/reincatalyze/data/processed/docking_pred/2023-Apr-25-2248_maxeplen10_maxtrainstep1000_exh16_gamma099_lrac3e-4_lrcr1e-3/d29de17412cd01c0ee6022e9d720ef028927a1a9_ligand_2.pdbqt
 12 12 0 0 0
SMALL
GASTEIGER

@<TRIPOS>ATOM
      1  C          8.3990   -0.6620   -2.1080 C.3     1  UNL1        0.1270
      2  C          8.4180   -1.9090   -2.8920 C.2     1  UNL1        0.3030
      3  O          9.5180   -2.4980   -3.0790 O.2     1  UNL1       -0.2520
      4  O          7.2540   -2.4660   -3.4400 O.3     1  UNL1       -0.4810
      5  H          6.8180   -3.2420   -2.9610 H       1  UNL1        0.2960
      6  C          7.0280   -0.0100   -2.0990 C.3     1  UNL1        0.0470
      7  C          6.4860    0.0720   -0.7170 C.2     1  UNL1       -0.0470
      8  C          6.6130   -0.9980    0.1570 C.2     1  UNL1        0.0040
      9  C          5.8300    1.1900   -0.2360 C.2     1  UNL1        0.0040
     10  C          6.1130   -0.9570    1.4390 C.2     1  UNL1        0.0000
     11  C          5.3290    1.2300    1.0470 C.2     1  UNL1        0.0000
     12  C          5.4580    0.1640    1.9090 C.2     1  UNL1        0.0000
@<TRIPOS>BOND
     1     4     5    1
     2     4     2    1
     3     3     2    2
     4     2     1    1
     5     1     6    1
     6     6     7    1
     7     7     9    2
     8     7     8    1
     9     9    11    1
    10     8    10    2
    11    11    12    2
    12    10    12    1
