@<TRIPOS>MOLECULE
/home/cewinharhar/GITHUB/reincatalyze/data/processed/docking_pred/2023-Apr-25-2248_maxeplen10_maxtrainstep1000_exh16_gamma099_lrac3e-4_lrcr1e-3/d29de17412cd01c0ee6022e9d720ef028927a1a9_ligand_2.pdbqt
 12 12 0 0 0
SMALL
GASTEIGER

@<TRIPOS>ATOM
      1  C          4.9930    1.7620    0.6930 C.3     1  UNL1        0.1270
      2  C          4.4790    1.1100    1.9100 C.2     1  UNL1        0.3030
      3  O          5.1730    0.2160    2.4650 O.2     1  UNL1       -0.2520
      4  O          3.2420    1.4510    2.4750 O.3     1  UNL1       -0.4810
      5  H          2.3970    1.1810    1.9890 H       1  UNL1        0.2960
      6  C          6.5030    1.9220    0.7210 C.3     1  UNL1        0.0470
      7  C          7.1440    1.1160   -0.3500 C.2     1  UNL1       -0.0470
      8  C          6.3990    0.2190   -1.1030 C.2     1  UNL1        0.0040
      9  C          8.4920    1.2030   -0.6470 C.2     1  UNL1        0.0040
     10  C          6.9650   -0.5490   -2.0940 C.2     1  UNL1        0.0000
     11  C          9.0570    0.4330   -1.6410 C.2     1  UNL1        0.0000
     12  C          8.3120   -0.4560   -2.3820 C.2     1  UNL1        0.0000
@<TRIPOS>BOND
     1    12    10    2
     2    12    11    1
     3    10     8    1
     4    11     9    2
     5     8     7    2
     6     9     7    1
     7     7     6    1
     8     1     6    1
     9     1     2    1
    10     2     3    2
    11     2     4    1
    12     5     4    1
