@<TRIPOS>MOLECULE
/home/cewinharhar/GITHUB/reincatalyze/data/processed/docking_pred/2023-Apr-25-2248_maxeplen10_maxtrainstep1000_exh16_gamma099_lrac3e-4_lrcr1e-3/d32515ef85c53a65d829162c3cbbbf13c46f52f9_ligand_2.pdbqt
 12 12 0 0 0
SMALL
GASTEIGER

@<TRIPOS>ATOM
      1  C          5.0270    1.7650    0.7270 C.3     1  UNL1        0.1270
      2  C          4.4760    1.1020    1.9220 C.2     1  UNL1        0.3030
      3  O          5.1410    0.1840    2.4750 O.2     1  UNL1       -0.2520
      4  O          3.2350    1.4580    2.4700 O.3     1  UNL1       -0.4810
      5  H          2.4310    1.5030    1.8580 H       1  UNL1        0.2960
      6  C          6.5410    1.8670    0.7740 C.3     1  UNL1        0.0470
      7  C          7.1620    1.0850   -0.3260 C.2     1  UNL1       -0.0470
      8  C          6.4170    0.1630   -1.0470 C.2     1  UNL1        0.0040
      9  C          8.4920    1.2180   -0.6810 C.2     1  UNL1        0.0040
     10  C          6.9660   -0.5850   -2.0640 C.2     1  UNL1        0.0000
     11  C          9.0400    0.4690   -1.6990 C.2     1  UNL1        0.0000
     12  C          8.2950   -0.4450   -2.4100 C.2     1  UNL1        0.0000
@<TRIPOS>BOND
     1    12    10    2
     2    12    11    1
     3    10     8    1
     4    11     9    2
     5     8     7    2
     6     9     7    1
     7     7     6    1
     8     1     6    1
     9     1     2    1
    10     5     4    1
    11     2     4    1
    12     2     3    2
