@<TRIPOS>MOLECULE
/home/cewinharhar/GITHUB/reincatalyze/data/processed/docking_pred/2023-Apr-25-2248_maxeplen10_maxtrainstep1000_exh16_gamma099_lrac3e-4_lrcr1e-3/d32515ef85c53a65d829162c3cbbbf13c46f52f9_ligand_2.pdbqt
 12 12 0 0 0
SMALL
GASTEIGER

@<TRIPOS>ATOM
      1  C          8.4030   -0.6110   -2.1870 C.3     1  UNL1        0.1270
      2  C          8.4410   -1.9000   -2.9010 C.2     1  UNL1        0.3030
      3  O          9.5470   -2.4900   -3.0410 O.2     1  UNL1       -0.2520
      4  O          7.2870   -2.4970   -3.4290 O.3     1  UNL1       -0.4810
      5  H          6.6890   -3.0260   -2.8080 H       1  UNL1        0.2960
      6  C          7.0140    0.0010   -2.1810 C.3     1  UNL1        0.0470
      7  C          6.4820    0.1010   -0.7970 C.2     1  UNL1       -0.0470
      8  C          6.6060   -0.9610    0.0870 C.2     1  UNL1        0.0040
      9  C          5.8370    1.2290   -0.3230 C.2     1  UNL1        0.0040
     10  C          6.1140   -0.9040    1.3710 C.2     1  UNL1        0.0000
     11  C          5.3460    1.2850    0.9640 C.2     1  UNL1        0.0000
     12  C          5.4720    0.2260    1.8350 C.2     1  UNL1        0.0000
@<TRIPOS>BOND
     1     4     2    1
     2     4     5    1
     3     3     2    2
     4     2     1    1
     5     1     6    1
     6     6     7    1
     7     7     9    2
     8     7     8    1
     9     9    11    1
    10     8    10    2
    11    11    12    2
    12    10    12    1
