MODEL 1
REMARK VINA RESULT:      -7.3      0.000      0.000
REMARK SMILES O=C(O)CCc1ccccc1
REMARK SMILES IDX 4 1 2 2 1 3 3 4 5 6 6 7 7 8 11 9 8 10 10 11 9 12
REMARK H PARENT 3 5
REMARK Flexibility Score: inf
ROOT
ATOM      1  C   UNL     1       8.408  -0.630  -2.169  1.00  0.00     0.127 C 
ENDROOT
BRANCH   1   2
ATOM      2  C   UNL     1       8.440  -1.908  -2.902  1.00  0.00     0.303 C 
ATOM      3  O   UNL     1       9.545  -2.496  -3.060  1.00  0.00    -0.252 OA
BRANCH   2   4
ATOM      4  O   UNL     1       7.282  -2.497  -3.431  1.00  0.00    -0.481 OA
ATOM      5  H   UNL     1       7.158  -2.503  -4.434  1.00  0.00     0.296 HD
ENDBRANCH   2   4
ENDBRANCH   1   2
BRANCH   1   6
ATOM      6  C   UNL     1       7.021  -0.014  -2.152  1.00  0.00     0.047 C 
BRANCH   6   7
ATOM      7  C   UNL     1       6.482   0.048  -0.768  1.00  0.00    -0.047 A 
ATOM      8  C   UNL     1       5.825   1.183  -0.314  1.00  0.00     0.004 A 
ATOM      9  C   UNL     1       6.611  -0.994   0.132  1.00  0.00     0.004 A 
ATOM     10  C   UNL     1       5.325   1.275   0.964  1.00  0.00     0.000 A 
ATOM     11  C   UNL     1       6.109  -0.900   1.413  1.00  0.00     0.000 A 
ATOM     12  C   UNL     1       5.459   0.229   1.856  1.00  0.00     0.000 A 
ENDBRANCH   6   7
ENDBRANCH   1   6
TORSDOF 4
ENDMDL
MODEL 2
REMARK VINA RESULT:      -7.3      0.036      1.421
REMARK SMILES O=C(O)CCc1ccccc1
REMARK SMILES IDX 4 1 2 2 1 3 3 4 5 6 6 7 7 8 11 9 8 10 10 11 9 12
REMARK H PARENT 3 5
REMARK Flexibility Score: inf
ROOT
ATOM      1  C   UNL     1       8.403  -0.611  -2.187  1.00  0.00     0.127 C 
ENDROOT
BRANCH   1   2
ATOM      2  C   UNL     1       8.441  -1.900  -2.901  1.00  0.00     0.303 C 
ATOM      3  O   UNL     1       9.547  -2.490  -3.041  1.00  0.00    -0.252 OA
BRANCH   2   4
ATOM      4  O   UNL     1       7.287  -2.497  -3.429  1.00  0.00    -0.481 OA
ATOM      5  H   UNL     1       6.689  -3.026  -2.808  1.00  0.00     0.296 HD
ENDBRANCH   2   4
ENDBRANCH   1   2
BRANCH   1   6
ATOM      6  C   UNL     1       7.014   0.001  -2.181  1.00  0.00     0.047 C 
BRANCH   6   7
ATOM      7  C   UNL     1       6.482   0.101  -0.797  1.00  0.00    -0.047 A 
ATOM      8  C   UNL     1       6.606  -0.961   0.087  1.00  0.00     0.004 A 
ATOM      9  C   UNL     1       5.837   1.229  -0.323  1.00  0.00     0.004 A 
ATOM     10  C   UNL     1       6.114  -0.904   1.371  1.00  0.00     0.000 A 
ATOM     11  C   UNL     1       5.346   1.285   0.964  1.00  0.00     0.000 A 
ATOM     12  C   UNL     1       5.472   0.226   1.835  1.00  0.00     0.000 A 
ENDBRANCH   6   7
ENDBRANCH   1   6
TORSDOF 4
ENDMDL
MODEL 3
REMARK VINA RESULT:      -7.0      0.706      1.904
REMARK SMILES O=C(O)CCc1ccccc1
REMARK SMILES IDX 4 1 2 2 1 3 3 4 5 6 6 7 7 8 11 9 8 10 10 11 9 12
REMARK H PARENT 3 5
REMARK Flexibility Score: inf
ROOT
ATOM      1  C   UNL     1       8.361  -0.753  -1.981  1.00  0.00     0.127 C 
ENDROOT
BRANCH   1   2
ATOM      2  C   UNL     1       8.365  -1.921  -2.880  1.00  0.00     0.303 C 
ATOM      3  O   UNL     1       7.265  -2.388  -3.281  1.00  0.00    -0.252 OA
BRANCH   2   4
ATOM      4  O   UNL     1       9.553  -2.531  -3.307  1.00  0.00    -0.481 OA
ATOM      5  H   UNL     1       9.569  -3.537  -3.412  1.00  0.00     0.296 HD
ENDBRANCH   2   4
ENDBRANCH   1   2
BRANCH   1   6
ATOM      6  C   UNL     1       7.900  -1.109  -0.579  1.00  0.00     0.047 C 
BRANCH   6   7
ATOM      7  C   UNL     1       6.880  -0.144  -0.092  1.00  0.00    -0.047 A 
ATOM      8  C   UNL     1       6.316  -0.286   1.167  1.00  0.00     0.004 A 
ATOM      9  C   UNL     1       6.436   0.923  -0.852  1.00  0.00     0.004 A 
ATOM     10  C   UNL     1       5.362   0.584   1.643  1.00  0.00     0.000 A 
ATOM     11  C   UNL     1       5.480   1.793  -0.375  1.00  0.00     0.000 A 
ATOM     12  C   UNL     1       4.924   1.645   0.876  1.00  0.00     0.000 A 
ENDBRANCH   6   7
ENDBRANCH   1   6
TORSDOF 4
ENDMDL
MODEL 4
REMARK VINA RESULT:      -6.8      3.400      5.076
REMARK SMILES O=C(O)CCc1ccccc1
REMARK SMILES IDX 4 1 2 2 1 3 3 4 5 6 6 7 7 8 11 9 8 10 10 11 9 12
REMARK H PARENT 3 5
REMARK Flexibility Score: inf
ROOT
ATOM      1  C   UNL     1       5.009   1.787   0.742  1.00  0.00     0.127 C 
ENDROOT
BRANCH   1   2
ATOM      2  C   UNL     1       4.466   1.111   1.934  1.00  0.00     0.303 C 
ATOM      3  O   UNL     1       5.140   0.196   2.480  1.00  0.00    -0.252 OA
BRANCH   2   4
ATOM      4  O   UNL     1       3.222   1.452   2.485  1.00  0.00    -0.481 OA
ATOM      5  H   UNL     1       3.204   1.975   3.350  1.00  0.00     0.296 HD
ENDBRANCH   2   4
ENDBRANCH   1   2
BRANCH   1   6
ATOM      6  C   UNL     1       6.525   1.872   0.771  1.00  0.00     0.047 C 
BRANCH   6   7
ATOM      7  C   UNL     1       7.125   1.063  -0.321  1.00  0.00    -0.047 A 
ATOM      8  C   UNL     1       8.459   1.221  -0.668  1.00  0.00     0.004 A 
ATOM      9  C   UNL     1       6.404   0.133  -1.047  1.00  0.00     0.004 A 
ATOM     10  C   UNL     1       9.042   0.495  -1.681  1.00  0.00     0.000 A 
ATOM     11  C   UNL     1       6.989  -0.594  -2.061  1.00  0.00     0.000 A 
ATOM     12  C   UNL     1       8.313  -0.430  -2.400  1.00  0.00     0.000 A 
ENDBRANCH   6   7
ENDBRANCH   1   6
TORSDOF 4
ENDMDL
MODEL 5
REMARK VINA RESULT:      -6.8      3.397      5.089
REMARK SMILES O=C(O)CCc1ccccc1
REMARK SMILES IDX 4 1 2 2 1 3 3 4 5 6 6 7 7 8 11 9 8 10 10 11 9 12
REMARK H PARENT 3 5
REMARK Flexibility Score: inf
ROOT
ATOM      1  C   UNL     1       5.027   1.765   0.727  1.00  0.00     0.127 C 
ENDROOT
BRANCH   1   2
ATOM      2  C   UNL     1       4.476   1.102   1.922  1.00  0.00     0.303 C 
ATOM      3  O   UNL     1       5.141   0.184   2.475  1.00  0.00    -0.252 OA
BRANCH   2   4
ATOM      4  O   UNL     1       3.235   1.458   2.470  1.00  0.00    -0.481 OA
ATOM      5  H   UNL     1       2.431   1.503   1.858  1.00  0.00     0.296 HD
ENDBRANCH   2   4
ENDBRANCH   1   2
BRANCH   1   6
ATOM      6  C   UNL     1       6.541   1.867   0.774  1.00  0.00     0.047 C 
BRANCH   6   7
ATOM      7  C   UNL     1       7.162   1.085  -0.326  1.00  0.00    -0.047 A 
ATOM      8  C   UNL     1       6.417   0.163  -1.047  1.00  0.00     0.004 A 
ATOM      9  C   UNL     1       8.492   1.218  -0.681  1.00  0.00     0.004 A 
ATOM     10  C   UNL     1       6.966  -0.585  -2.064  1.00  0.00     0.000 A 
ATOM     11  C   UNL     1       9.040   0.469  -1.699  1.00  0.00     0.000 A 
ATOM     12  C   UNL     1       8.295  -0.445  -2.410  1.00  0.00     0.000 A 
ENDBRANCH   6   7
ENDBRANCH   1   6
TORSDOF 4
ENDMDL
