@<TRIPOS>MOLECULE
/home/cewinharhar/GITHUB/reincatalyze/data/processed/docking_pred/2023-Apr-25-2248_maxeplen10_maxtrainstep1000_exh16_gamma099_lrac3e-4_lrcr1e-3/d32515ef85c53a65d829162c3cbbbf13c46f52f9_ligand_2.pdbqt
 12 12 0 0 0
SMALL
GASTEIGER

@<TRIPOS>ATOM
      1  C          8.3610   -0.7530   -1.9810 C.3     1  UNL1        0.1270
      2  C          8.3650   -1.9210   -2.8800 C.2     1  UNL1        0.3030
      3  O          7.2650   -2.3880   -3.2810 O.2     1  UNL1       -0.2520
      4  O          9.5530   -2.5310   -3.3070 O.3     1  UNL1       -0.4810
      5  H          9.5690   -3.5370   -3.4120 H       1  UNL1        0.2960
      6  C          7.9000   -1.1090   -0.5790 C.3     1  UNL1        0.0470
      7  C          6.8800   -0.1440   -0.0920 C.2     1  UNL1       -0.0470
      8  C          6.3160   -0.2860    1.1670 C.2     1  UNL1        0.0040
      9  C          6.4360    0.9230   -0.8520 C.2     1  UNL1        0.0040
     10  C          5.3620    0.5840    1.6430 C.2     1  UNL1        0.0000
     11  C          5.4800    1.7930   -0.3750 C.2     1  UNL1        0.0000
     12  C          4.9240    1.6450    0.8760 C.2     1  UNL1        0.0000
@<TRIPOS>BOND
     1     5     4    1
     2     4     2    1
     3     3     2    2
     4     2     1    1
     5     1     6    1
     6     9    11    1
     7     9     7    2
     8     6     7    1
     9    11    12    2
    10     7     8    1
    11    12    10    1
    12     8    10    2
