@<TRIPOS>MOLECULE
/home/cewinharhar/GITHUB/reincatalyze/data/processed/docking_pred/2023-Apr-25-2248_maxeplen10_maxtrainstep1000_exh16_gamma099_lrac3e-4_lrcr1e-3/d32515ef85c53a65d829162c3cbbbf13c46f52f9_ligand_2.pdbqt
 12 12 0 0 0
SMALL
GASTEIGER

@<TRIPOS>ATOM
      1  C          8.4080   -0.6300   -2.1690 C.3     1  UNL1        0.1270
      2  C          8.4400   -1.9080   -2.9020 C.2     1  UNL1        0.3030
      3  O          9.5450   -2.4960   -3.0600 O.2     1  UNL1       -0.2520
      4  O          7.2820   -2.4970   -3.4310 O.3     1  UNL1       -0.4810
      5  H          7.1580   -2.5030   -4.4340 H       1  UNL1        0.2960
      6  C          7.0210   -0.0140   -2.1520 C.3     1  UNL1        0.0470
      7  C          6.4820    0.0480   -0.7680 C.2     1  UNL1       -0.0470
      8  C          5.8250    1.1830   -0.3140 C.2     1  UNL1        0.0040
      9  C          6.6110   -0.9940    0.1320 C.2     1  UNL1        0.0040
     10  C          5.3250    1.2750    0.9640 C.2     1  UNL1        0.0000
     11  C          6.1090   -0.9000    1.4130 C.2     1  UNL1        0.0000
     12  C          5.4590    0.2290    1.8560 C.2     1  UNL1        0.0000
@<TRIPOS>BOND
     1     5     4    1
     2     4     2    1
     3     3     2    2
     4     2     1    1
     5     1     6    1
     6     6     7    1
     7     7     8    2
     8     7     9    1
     9     8    10    1
    10     9    11    2
    11    10    12    2
    12    11    12    1
