@<TRIPOS>MOLECULE
/home/cewinharhar/GITHUB/reincatalyze/data/processed/docking_pred/2023-Apr-25-2248_maxeplen10_maxtrainstep1000_exh16_gamma099_lrac3e-4_lrcr1e-3/d4292dbdc665c4d20b6271b363b9823f318ec372_ligand_2.pdbqt
 12 12 0 0 0
SMALL
GASTEIGER

@<TRIPOS>ATOM
      1  C          8.4250   -0.6520   -2.1320 C.3     1  UNL1        0.1270
      2  C          8.4170   -1.9160   -2.8880 C.2     1  UNL1        0.3030
      3  O          7.3120   -2.4250   -3.2190 O.2     1  UNL1       -0.2520
      4  O          9.6000   -2.5750   -3.2550 O.3     1  UNL1       -0.4810
      5  H         10.1650   -2.1780   -3.9930 H       1  UNL1        0.2960
      6  C          7.0650    0.0240   -2.1300 C.3     1  UNL1        0.0470
      7  C          6.5010    0.0800   -0.7560 C.2     1  UNL1       -0.0470
      8  C          5.8150    1.2040   -0.3180 C.2     1  UNL1        0.0040
      9  C          6.6310   -0.9570    0.1490 C.2     1  UNL1        0.0040
     10  C          5.2890    1.2910    0.9510 C.2     1  UNL1        0.0000
     11  C          6.1040   -0.8690    1.4200 C.2     1  UNL1        0.0000
     12  C          5.4260    0.2500    1.8480 C.2     1  UNL1        0.0000
@<TRIPOS>BOND
     1     5     4    1
     2     4     2    1
     3     3     2    2
     4     2     1    1
     5     1     6    1
     6     6     7    1
     7     7     8    2
     8     7     9    1
     9     8    10    1
    10     9    11    2
    11    10    12    2
    12    11    12    1
