@<TRIPOS>MOLECULE
/home/cewinharhar/GITHUB/reincatalyze/data/processed/docking_pred/2023-Apr-25-2248_maxeplen10_maxtrainstep1000_exh16_gamma099_lrac3e-4_lrcr1e-3/d4292dbdc665c4d20b6271b363b9823f318ec372_ligand_2.pdbqt
 12 12 0 0 0
SMALL
GASTEIGER

@<TRIPOS>ATOM
      1  C          8.2490    0.2440   -2.2300 C.3     1  UNL1        0.1270
      2  C          9.3680    0.3700   -1.2790 C.2     1  UNL1        0.3030
      3  O          9.4270   -0.4180   -0.2960 O.2     1  UNL1       -0.2520
      4  O         10.3720    1.3360   -1.4290 O.3     1  UNL1       -0.4810
      5  H         10.8790    1.3750   -2.3030 H       1  UNL1        0.2960
      6  C          7.0800   -0.5270   -1.6420 C.3     1  UNL1        0.0470
      7  C          6.3230    0.3100   -0.6750 C.2     1  UNL1       -0.0470
      8  C          6.1080   -0.1290    0.6230 C.2     1  UNL1        0.0040
      9  C          5.7910    1.5430   -1.0080 C.2     1  UNL1        0.0040
     10  C          5.4020    0.6170    1.5390 C.2     1  UNL1        0.0000
     11  C          5.0840    2.2890   -0.0890 C.2     1  UNL1        0.0000
     12  C          4.8740    1.8460    1.1970 C.2     1  UNL1        0.0000
@<TRIPOS>BOND
     1     5     4    1
     2     1     6    1
     3     1     2    1
     4     6     7    1
     5     4     2    1
     6     2     3    2
     7     9     7    2
     8     9    11    1
     9     7     8    1
    10    11    12    2
    11     8    10    2
    12    12    10    1
