@<TRIPOS>MOLECULE
/home/cewinharhar/GITHUB/reincatalyze/data/processed/docking_pred/2023-Apr-25-2248_maxeplen10_maxtrainstep1000_exh16_gamma099_lrac3e-4_lrcr1e-3/d4292dbdc665c4d20b6271b363b9823f318ec372_ligand_2.pdbqt
 12 12 0 0 0
SMALL
GASTEIGER

@<TRIPOS>ATOM
      1  C          8.3990   -0.6570   -2.1300 C.3     1  UNL1        0.1270
      2  C          8.4300   -1.9190   -2.8900 C.2     1  UNL1        0.3030
      3  O          9.5320   -2.5120   -3.0480 O.2     1  UNL1       -0.2520
      4  O          7.2740   -2.4860   -3.4450 O.3     1  UNL1       -0.4810
      5  H          6.9160   -2.1050   -4.3110 H       1  UNL1        0.2960
      6  C          7.0180   -0.0260   -2.1200 C.3     1  UNL1        0.0470
      7  C          6.4790    0.0540   -0.7380 C.2     1  UNL1       -0.0470
      8  C          6.6110   -1.0150    0.1370 C.2     1  UNL1        0.0040
      9  C          5.8190    1.1700   -0.2550 C.2     1  UNL1        0.0040
     10  C          6.1140   -0.9760    1.4190 C.2     1  UNL1        0.0000
     11  C          5.3220    1.2070    1.0290 C.2     1  UNL1        0.0000
     12  C          5.4560    0.1420    1.8910 C.2     1  UNL1        0.0000
@<TRIPOS>BOND
     1     5     4    1
     2     4     2    1
     3     3     2    2
     4     2     1    1
     5     1     6    1
     6     6     7    1
     7     7     9    2
     8     7     8    1
     9     9    11    1
    10     8    10    2
    11    11    12    2
    12    10    12    1
