@<TRIPOS>MOLECULE
/home/cewinharhar/GITHUB/reincatalyze/data/processed/docking_pred/2023-Apr-25-2248_maxeplen10_maxtrainstep1000_exh16_gamma099_lrac3e-4_lrcr1e-3/d4292dbdc665c4d20b6271b363b9823f318ec372_ligand_2.pdbqt
 12 12 0 0 0
SMALL
GASTEIGER

@<TRIPOS>ATOM
      1  C          4.9990    1.7590    0.7220 C.3     1  UNL1        0.1270
      2  C          4.4690    1.1000    1.9290 C.2     1  UNL1        0.3030
      3  O          5.1510    0.1960    2.4820 O.2     1  UNL1       -0.2520
      4  O          3.2290    1.4460    2.4860 O.3     1  UNL1       -0.4810
      5  H          2.9340    0.9810    3.3340 H       1  UNL1        0.2960
      6  C          6.5130    1.8700    0.7470 C.3     1  UNL1        0.0470
      7  C          7.1240    1.0560   -0.3360 C.2     1  UNL1       -0.0470
      8  C          8.4620    1.2120   -0.6690 C.2     1  UNL1        0.0040
      9  C          6.4100    0.1250   -1.0670 C.2     1  UNL1        0.0040
     10  C          9.0550    0.4820   -1.6730 C.2     1  UNL1        0.0000
     11  C          7.0050   -0.6060   -2.0720 C.2     1  UNL1        0.0000
     12  C          8.3330   -0.4450   -2.3970 C.2     1  UNL1        0.0000
@<TRIPOS>BOND
     1    12    11    2
     2    12    10    1
     3    11     9    1
     4    10     8    2
     5     9     7    2
     6     8     7    1
     7     7     6    1
     8     1     6    1
     9     1     2    1
    10     2     3    2
    11     2     4    1
    12     4     5    1
