MODEL 1
REMARK VINA RESULT:      -7.3      0.000      0.000
REMARK SMILES O=C(O)CCc1ccccc1
REMARK SMILES IDX 4 1 2 2 1 3 3 4 5 6 6 7 7 8 11 9 8 10 10 11 9 12
REMARK H PARENT 3 5
REMARK Flexibility Score: inf
ROOT
ATOM      1  C   UNL     1       8.399  -0.657  -2.130  1.00  0.00     0.127 C 
ENDROOT
BRANCH   1   2
ATOM      2  C   UNL     1       8.430  -1.919  -2.890  1.00  0.00     0.303 C 
ATOM      3  O   UNL     1       9.532  -2.512  -3.048  1.00  0.00    -0.252 OA
BRANCH   2   4
ATOM      4  O   UNL     1       7.274  -2.486  -3.445  1.00  0.00    -0.481 OA
ATOM      5  H   UNL     1       6.916  -2.105  -4.311  1.00  0.00     0.296 HD
ENDBRANCH   2   4
ENDBRANCH   1   2
BRANCH   1   6
ATOM      6  C   UNL     1       7.018  -0.026  -2.120  1.00  0.00     0.047 C 
BRANCH   6   7
ATOM      7  C   UNL     1       6.479   0.054  -0.738  1.00  0.00    -0.047 A 
ATOM      8  C   UNL     1       6.611  -1.015   0.137  1.00  0.00     0.004 A 
ATOM      9  C   UNL     1       5.819   1.170  -0.255  1.00  0.00     0.004 A 
ATOM     10  C   UNL     1       6.114  -0.976   1.419  1.00  0.00     0.000 A 
ATOM     11  C   UNL     1       5.322   1.207   1.029  1.00  0.00     0.000 A 
ATOM     12  C   UNL     1       5.456   0.142   1.891  1.00  0.00     0.000 A 
ENDBRANCH   6   7
ENDBRANCH   1   6
TORSDOF 4
ENDMDL
MODEL 2
REMARK VINA RESULT:      -7.2      0.122      1.723
REMARK SMILES O=C(O)CCc1ccccc1
REMARK SMILES IDX 4 1 2 2 1 3 3 4 5 6 6 7 7 8 11 9 8 10 10 11 9 12
REMARK H PARENT 3 5
REMARK Flexibility Score: inf
ROOT
ATOM      1  C   UNL     1       8.425  -0.652  -2.132  1.00  0.00     0.127 C 
ENDROOT
BRANCH   1   2
ATOM      2  C   UNL     1       8.417  -1.916  -2.888  1.00  0.00     0.303 C 
ATOM      3  O   UNL     1       7.312  -2.425  -3.219  1.00  0.00    -0.252 OA
BRANCH   2   4
ATOM      4  O   UNL     1       9.600  -2.575  -3.255  1.00  0.00    -0.481 OA
ATOM      5  H   UNL     1      10.165  -2.178  -3.993  1.00  0.00     0.296 HD
ENDBRANCH   2   4
ENDBRANCH   1   2
BRANCH   1   6
ATOM      6  C   UNL     1       7.065   0.024  -2.130  1.00  0.00     0.047 C 
BRANCH   6   7
ATOM      7  C   UNL     1       6.501   0.080  -0.756  1.00  0.00    -0.047 A 
ATOM      8  C   UNL     1       5.815   1.204  -0.318  1.00  0.00     0.004 A 
ATOM      9  C   UNL     1       6.631  -0.957   0.149  1.00  0.00     0.004 A 
ATOM     10  C   UNL     1       5.289   1.291   0.951  1.00  0.00     0.000 A 
ATOM     11  C   UNL     1       6.104  -0.869   1.420  1.00  0.00     0.000 A 
ATOM     12  C   UNL     1       5.426   0.250   1.848  1.00  0.00     0.000 A 
ENDBRANCH   6   7
ENDBRANCH   1   6
TORSDOF 4
ENDMDL
MODEL 3
REMARK VINA RESULT:      -6.8      3.401      5.095
REMARK SMILES O=C(O)CCc1ccccc1
REMARK SMILES IDX 4 1 2 2 1 3 3 4 5 6 6 7 7 8 11 9 8 10 10 11 9 12
REMARK H PARENT 3 5
REMARK Flexibility Score: inf
ROOT
ATOM      1  C   UNL     1       4.999   1.759   0.722  1.00  0.00     0.127 C 
ENDROOT
BRANCH   1   2
ATOM      2  C   UNL     1       4.469   1.100   1.929  1.00  0.00     0.303 C 
ATOM      3  O   UNL     1       5.151   0.196   2.482  1.00  0.00    -0.252 OA
BRANCH   2   4
ATOM      4  O   UNL     1       3.229   1.446   2.486  1.00  0.00    -0.481 OA
ATOM      5  H   UNL     1       2.934   0.981   3.334  1.00  0.00     0.296 HD
ENDBRANCH   2   4
ENDBRANCH   1   2
BRANCH   1   6
ATOM      6  C   UNL     1       6.513   1.870   0.747  1.00  0.00     0.047 C 
BRANCH   6   7
ATOM      7  C   UNL     1       7.124   1.056  -0.336  1.00  0.00    -0.047 A 
ATOM      8  C   UNL     1       8.462   1.212  -0.669  1.00  0.00     0.004 A 
ATOM      9  C   UNL     1       6.410   0.125  -1.067  1.00  0.00     0.004 A 
ATOM     10  C   UNL     1       9.055   0.482  -1.673  1.00  0.00     0.000 A 
ATOM     11  C   UNL     1       7.005  -0.606  -2.072  1.00  0.00     0.000 A 
ATOM     12  C   UNL     1       8.333  -0.445  -2.397  1.00  0.00     0.000 A 
ENDBRANCH   6   7
ENDBRANCH   1   6
TORSDOF 4
ENDMDL
MODEL 4
REMARK VINA RESULT:      -6.7      3.400      5.079
REMARK SMILES O=C(O)CCc1ccccc1
REMARK SMILES IDX 4 1 2 2 1 3 3 4 5 6 6 7 7 8 11 9 8 10 10 11 9 12
REMARK H PARENT 3 5
REMARK Flexibility Score: inf
ROOT
ATOM      1  C   UNL     1       5.012   1.809   0.712  1.00  0.00     0.127 C 
ENDROOT
BRANCH   1   2
ATOM      2  C   UNL     1       4.481   1.129   1.907  1.00  0.00     0.303 C 
ATOM      3  O   UNL     1       5.164   0.216   2.446  1.00  0.00    -0.252 OA
BRANCH   2   4
ATOM      4  O   UNL     1       3.240   1.463   2.467  1.00  0.00    -0.481 OA
ATOM      5  H   UNL     1       3.199   2.222   3.134  1.00  0.00     0.296 HD
ENDBRANCH   2   4
ENDBRANCH   1   2
BRANCH   1   6
ATOM      6  C   UNL     1       6.524   1.939   0.750  1.00  0.00     0.047 C 
BRANCH   6   7
ATOM      7  C   UNL     1       7.155   1.148  -0.339  1.00  0.00    -0.047 A 
ATOM      8  C   UNL     1       6.399   0.276  -1.109  1.00  0.00     0.004 A 
ATOM      9  C   UNL     1       8.503   1.225  -0.635  1.00  0.00     0.004 A 
ATOM     10  C   UNL     1       6.955  -0.478  -2.117  1.00  0.00     0.000 A 
ATOM     11  C   UNL     1       9.059   0.469  -1.645  1.00  0.00     0.000 A 
ATOM     12  C   UNL     1       8.302  -0.395  -2.404  1.00  0.00     0.000 A 
ENDBRANCH   6   7
ENDBRANCH   1   6
TORSDOF 4
ENDMDL
MODEL 5
REMARK VINA RESULT:      -6.6      1.946      2.367
REMARK SMILES O=C(O)CCc1ccccc1
REMARK SMILES IDX 4 1 2 2 1 3 3 4 5 6 6 7 7 8 11 9 8 10 10 11 9 12
REMARK H PARENT 3 5
REMARK Flexibility Score: inf
ROOT
ATOM      1  C   UNL     1       8.249   0.244  -2.230  1.00  0.00     0.127 C 
ENDROOT
BRANCH   1   2
ATOM      2  C   UNL     1       9.368   0.370  -1.279  1.00  0.00     0.303 C 
ATOM      3  O   UNL     1       9.427  -0.418  -0.296  1.00  0.00    -0.252 OA
BRANCH   2   4
ATOM      4  O   UNL     1      10.372   1.336  -1.429  1.00  0.00    -0.481 OA
ATOM      5  H   UNL     1      10.879   1.375  -2.303  1.00  0.00     0.296 HD
ENDBRANCH   2   4
ENDBRANCH   1   2
BRANCH   1   6
ATOM      6  C   UNL     1       7.080  -0.527  -1.642  1.00  0.00     0.047 C 
BRANCH   6   7
ATOM      7  C   UNL     1       6.323   0.310  -0.675  1.00  0.00    -0.047 A 
ATOM      8  C   UNL     1       6.108  -0.129   0.623  1.00  0.00     0.004 A 
ATOM      9  C   UNL     1       5.791   1.543  -1.008  1.00  0.00     0.004 A 
ATOM     10  C   UNL     1       5.402   0.617   1.539  1.00  0.00     0.000 A 
ATOM     11  C   UNL     1       5.084   2.289  -0.089  1.00  0.00     0.000 A 
ATOM     12  C   UNL     1       4.874   1.846   1.197  1.00  0.00     0.000 A 
ENDBRANCH   6   7
ENDBRANCH   1   6
TORSDOF 4
ENDMDL
