@<TRIPOS>MOLECULE
/home/cewinharhar/GITHUB/reincatalyze/data/processed/docking_pred/2023-Apr-25-2248_maxeplen10_maxtrainstep1000_exh16_gamma099_lrac3e-4_lrcr1e-3/d4292dbdc665c4d20b6271b363b9823f318ec372_ligand_2.pdbqt
 12 12 0 0 0
SMALL
GASTEIGER

@<TRIPOS>ATOM
      1  C          5.0120    1.8090    0.7120 C.3     1  UNL1        0.1270
      2  C          4.4810    1.1290    1.9070 C.2     1  UNL1        0.3030
      3  O          5.1640    0.2160    2.4460 O.2     1  UNL1       -0.2520
      4  O          3.2400    1.4630    2.4670 O.3     1  UNL1       -0.4810
      5  H          3.1990    2.2220    3.1340 H       1  UNL1        0.2960
      6  C          6.5240    1.9390    0.7500 C.3     1  UNL1        0.0470
      7  C          7.1550    1.1480   -0.3390 C.2     1  UNL1       -0.0470
      8  C          6.3990    0.2760   -1.1090 C.2     1  UNL1        0.0040
      9  C          8.5030    1.2250   -0.6350 C.2     1  UNL1        0.0040
     10  C          6.9550   -0.4780   -2.1170 C.2     1  UNL1        0.0000
     11  C          9.0590    0.4690   -1.6450 C.2     1  UNL1        0.0000
     12  C          8.3020   -0.3950   -2.4040 C.2     1  UNL1        0.0000
@<TRIPOS>BOND
     1    12    10    2
     2    12    11    1
     3    10     8    1
     4    11     9    2
     5     8     7    2
     6     9     7    1
     7     7     6    1
     8     1     6    1
     9     1     2    1
    10     2     3    2
    11     2     4    1
    12     4     5    1
