@<TRIPOS>MOLECULE
/home/cewinharhar/GITHUB/reincatalyze/data/processed/docking_pred/2023-Apr-25-2248_maxeplen10_maxtrainstep1000_exh16_gamma099_lrac3e-4_lrcr1e-3/d475abeaf77d1f7cad9c775310647ad941a1fd31_ligand_2.pdbqt
 12 12 0 0 0
SMALL
GASTEIGER

@<TRIPOS>ATOM
      1  C          8.4070   -0.6590   -2.1160 C.3     1  UNL1        0.1270
      2  C          8.4260   -1.9090   -2.8960 C.2     1  UNL1        0.3030
      3  O          9.5260   -2.4960   -3.0850 O.2     1  UNL1       -0.2520
      4  O          7.2610   -2.4720   -3.4360 O.3     1  UNL1       -0.4810
      5  H          6.3990   -2.3920   -2.9140 H       1  UNL1        0.2960
      6  C          7.0330   -0.0120   -2.1020 C.3     1  UNL1        0.0470
      7  C          6.4920    0.0590   -0.7200 C.2     1  UNL1       -0.0470
      8  C          6.6350   -1.0110    0.1520 C.2     1  UNL1        0.0040
      9  C          5.8210    1.1670   -0.2350 C.2     1  UNL1        0.0040
     10  C          6.1360   -0.9800    1.4340 C.2     1  UNL1        0.0000
     11  C          5.3230    1.1960    1.0500 C.2     1  UNL1        0.0000
     12  C          5.4670    0.1300    1.9090 C.2     1  UNL1        0.0000
@<TRIPOS>BOND
     1     4     5    1
     2     4     2    1
     3     3     2    2
     4     2     1    1
     5     1     6    1
     6     6     7    1
     7     7     9    2
     8     7     8    1
     9     9    11    1
    10     8    10    2
    11    11    12    2
    12    10    12    1
