@<TRIPOS>MOLECULE
/home/cewinharhar/GITHUB/reincatalyze/data/processed/docking_pred/2023-Apr-25-2248_maxeplen10_maxtrainstep1000_exh16_gamma099_lrac3e-4_lrcr1e-3/d475abeaf77d1f7cad9c775310647ad941a1fd31_ligand_2.pdbqt
 12 12 0 0 0
SMALL
GASTEIGER

@<TRIPOS>ATOM
      1  C          8.2000   -0.9290   -1.9160 C.3     1  UNL1        0.1270
      2  C          8.3410   -2.0510   -2.8610 C.2     1  UNL1        0.3030
      3  O          9.4750   -2.5780   -3.0200 O.2     1  UNL1       -0.2520
      4  O          7.2550   -2.5550   -3.5900 O.3     1  UNL1       -0.4810
      5  H          6.6530   -3.2390   -3.1500 H       1  UNL1        0.2960
      6  C          7.5340   -1.3510   -0.6190 C.3     1  UNL1        0.0470
      7  C          6.6470   -0.2760   -0.1020 C.2     1  UNL1       -0.0470
      8  C          6.1070   -0.3570    1.1740 C.2     1  UNL1        0.0040
      9  C          6.3070    0.8370   -0.8480 C.2     1  UNL1        0.0040
     10  C          5.2750    0.6160    1.6780 C.2     1  UNL1        0.0000
     11  C          5.4730    1.8110   -0.3410 C.2     1  UNL1        0.0000
     12  C          4.9400    1.7230    0.9250 C.2     1  UNL1        0.0000
@<TRIPOS>BOND
     1     4     5    1
     2     4     2    1
     3     3     2    2
     4     2     1    1
     5     1     6    1
     6     9    11    1
     7     9     7    2
     8     6     7    1
     9    11    12    2
    10     7     8    1
    11    12    10    1
    12     8    10    2
