@<TRIPOS>MOLECULE
/home/cewinharhar/GITHUB/reincatalyze/data/processed/docking_pred/2023-Apr-25-2248_maxeplen10_maxtrainstep1000_exh16_gamma099_lrac3e-4_lrcr1e-3/d475abeaf77d1f7cad9c775310647ad941a1fd31_ligand_2.pdbqt
 12 12 0 0 0
SMALL
GASTEIGER

@<TRIPOS>ATOM
      1  C          5.0440    1.7040    0.7380 C.3     1  UNL1        0.1270
      2  C          4.5850    1.0110    1.9550 C.2     1  UNL1        0.3030
      3  O          5.3380    0.1530    2.4920 O.2     1  UNL1       -0.2520
      4  O          3.3380    1.2730    2.5410 O.3     1  UNL1       -0.4810
      5  H          3.2410    2.0930    3.1250 H       1  UNL1        0.2960
      6  C          6.5490    1.8980    0.7210 C.3     1  UNL1        0.0470
      7  C          7.1780    1.0880   -0.3550 C.2     1  UNL1       -0.0470
      8  C          6.4260    0.1870   -1.0940 C.2     1  UNL1        0.0040
      9  C          8.5220    1.1770   -0.6700 C.2     1  UNL1        0.0040
     10  C          6.9810   -0.5850   -2.0900 C.2     1  UNL1        0.0000
     11  C          9.0760    0.4040   -1.6670 C.2     1  UNL1        0.0000
     12  C          8.3230   -0.4900   -2.3950 C.2     1  UNL1        0.0000
@<TRIPOS>BOND
     1    12    10    2
     2    12    11    1
     3    10     8    1
     4    11     9    2
     5     8     7    2
     6     9     7    1
     7     7     6    1
     8     6     1    1
     9     1     2    1
    10     2     3    2
    11     2     4    1
    12     4     5    1
