@<TRIPOS>MOLECULE
/home/cewinharhar/GITHUB/reincatalyze/data/processed/docking_pred/2023-Apr-25-2248_maxeplen10_maxtrainstep1000_exh16_gamma099_lrac3e-4_lrcr1e-3/d475abeaf77d1f7cad9c775310647ad941a1fd31_ligand_2.pdbqt
 12 12 0 0 0
SMALL
GASTEIGER

@<TRIPOS>ATOM
      1  C          5.5120    2.8780    0.0330 C.3     1  UNL1        0.1270
      2  C          6.2710    3.8580    0.8290 C.2     1  UNL1        0.3030
      3  O          6.9060    4.7710    0.2330 O.2     1  UNL1       -0.2520
      4  O          6.3120    3.8130    2.2300 O.3     1  UNL1       -0.4810
      5  H          5.4710    3.5600    2.7300 H       1  UNL1        0.2960
      6  C          4.8530    1.8210    0.9010 C.3     1  UNL1        0.0470
      7  C          5.6810    0.5870    0.9580 C.2     1  UNL1       -0.0470
      8  C          6.3940    0.1610   -0.1530 C.2     1  UNL1        0.0040
      9  C          5.7790   -0.1960    2.0930 C.2     1  UNL1        0.0040
     10  C          7.1600   -0.9820   -0.1350 C.2     1  UNL1        0.0000
     11  C          6.5470   -1.3400    2.1100 C.2     1  UNL1        0.0000
     12  C          7.2500   -1.7580    1.0030 C.2     1  UNL1        0.0000
@<TRIPOS>BOND
     1     8    10    1
     2     8     7    2
     3    10    12    2
     4     1     2    1
     5     1     6    1
     6     3     2    2
     7     2     4    1
     8     6     7    1
     9     7     9    1
    10    12    11    1
    11     9    11    2
    12     4     5    1
