MODEL 1
REMARK VINA RESULT:      -7.3      0.000      0.000
REMARK SMILES O=C(O)CCc1ccccc1
REMARK SMILES IDX 4 1 2 2 1 3 3 4 5 6 6 7 7 8 11 9 8 10 10 11 9 12
REMARK H PARENT 3 5
REMARK Flexibility Score: inf
ROOT
ATOM      1  C   UNL     1       8.410  -0.669  -2.109  1.00  0.00     0.127 C 
ENDROOT
BRANCH   1   2
ATOM      2  C   UNL     1       8.438  -1.916  -2.894  1.00  0.00     0.303 C 
ATOM      3  O   UNL     1       9.542  -2.495  -3.084  1.00  0.00    -0.252 OA
BRANCH   2   4
ATOM      4  O   UNL     1       7.277  -2.484  -3.437  1.00  0.00    -0.481 OA
ATOM      5  H   UNL     1       7.366  -3.315  -4.006  1.00  0.00     0.296 HD
ENDBRANCH   2   4
ENDBRANCH   1   2
BRANCH   1   6
ATOM      6  C   UNL     1       7.038  -0.017  -2.115  1.00  0.00     0.047 C 
BRANCH   6   7
ATOM      7  C   UNL     1       6.478   0.059  -0.741  1.00  0.00    -0.047 A 
ATOM      8  C   UNL     1       5.820   1.202  -0.307  1.00  0.00     0.004 A 
ATOM      9  C   UNL     1       6.587  -0.975   0.170  1.00  0.00     0.004 A 
ATOM     10  C   UNL     1       5.300   1.308   0.962  1.00  0.00     0.000 A 
ATOM     11  C   UNL     1       6.065  -0.867   1.442  1.00  0.00     0.000 A 
ATOM     12  C   UNL     1       5.415   0.269   1.865  1.00  0.00     0.000 A 
ENDBRANCH   6   7
ENDBRANCH   1   6
TORSDOF 4
ENDMDL
MODEL 2
REMARK VINA RESULT:      -7.3      0.082      1.422
REMARK SMILES O=C(O)CCc1ccccc1
REMARK SMILES IDX 4 1 2 2 1 3 3 4 5 6 6 7 7 8 11 9 8 10 10 11 9 12
REMARK H PARENT 3 5
REMARK Flexibility Score: inf
ROOT
ATOM      1  C   UNL     1       8.407  -0.659  -2.116  1.00  0.00     0.127 C 
ENDROOT
BRANCH   1   2
ATOM      2  C   UNL     1       8.426  -1.909  -2.896  1.00  0.00     0.303 C 
ATOM      3  O   UNL     1       9.526  -2.496  -3.085  1.00  0.00    -0.252 OA
BRANCH   2   4
ATOM      4  O   UNL     1       7.261  -2.472  -3.436  1.00  0.00    -0.481 OA
ATOM      5  H   UNL     1       6.399  -2.392  -2.914  1.00  0.00     0.296 HD
ENDBRANCH   2   4
ENDBRANCH   1   2
BRANCH   1   6
ATOM      6  C   UNL     1       7.033  -0.012  -2.102  1.00  0.00     0.047 C 
BRANCH   6   7
ATOM      7  C   UNL     1       6.492   0.059  -0.720  1.00  0.00    -0.047 A 
ATOM      8  C   UNL     1       6.635  -1.011   0.152  1.00  0.00     0.004 A 
ATOM      9  C   UNL     1       5.821   1.167  -0.235  1.00  0.00     0.004 A 
ATOM     10  C   UNL     1       6.136  -0.980   1.434  1.00  0.00     0.000 A 
ATOM     11  C   UNL     1       5.323   1.196   1.050  1.00  0.00     0.000 A 
ATOM     12  C   UNL     1       5.467   0.130   1.909  1.00  0.00     0.000 A 
ENDBRANCH   6   7
ENDBRANCH   1   6
TORSDOF 4
ENDMDL
MODEL 3
REMARK VINA RESULT:      -7.1      0.665      1.625
REMARK SMILES O=C(O)CCc1ccccc1
REMARK SMILES IDX 4 1 2 2 1 3 3 4 5 6 6 7 7 8 11 9 8 10 10 11 9 12
REMARK H PARENT 3 5
REMARK Flexibility Score: inf
ROOT
ATOM      1  C   UNL     1       8.200  -0.929  -1.916  1.00  0.00     0.127 C 
ENDROOT
BRANCH   1   2
ATOM      2  C   UNL     1       8.341  -2.051  -2.861  1.00  0.00     0.303 C 
ATOM      3  O   UNL     1       9.475  -2.578  -3.020  1.00  0.00    -0.252 OA
BRANCH   2   4
ATOM      4  O   UNL     1       7.255  -2.555  -3.590  1.00  0.00    -0.481 OA
ATOM      5  H   UNL     1       6.653  -3.239  -3.150  1.00  0.00     0.296 HD
ENDBRANCH   2   4
ENDBRANCH   1   2
BRANCH   1   6
ATOM      6  C   UNL     1       7.534  -1.351  -0.619  1.00  0.00     0.047 C 
BRANCH   6   7
ATOM      7  C   UNL     1       6.647  -0.276  -0.102  1.00  0.00    -0.047 A 
ATOM      8  C   UNL     1       6.107  -0.357   1.174  1.00  0.00     0.004 A 
ATOM      9  C   UNL     1       6.307   0.837  -0.848  1.00  0.00     0.004 A 
ATOM     10  C   UNL     1       5.275   0.616   1.678  1.00  0.00     0.000 A 
ATOM     11  C   UNL     1       5.473   1.811  -0.341  1.00  0.00     0.000 A 
ATOM     12  C   UNL     1       4.940   1.723   0.925  1.00  0.00     0.000 A 
ENDBRANCH   6   7
ENDBRANCH   1   6
TORSDOF 4
ENDMDL
MODEL 4
REMARK VINA RESULT:      -6.7      3.360      5.055
REMARK SMILES O=C(O)CCc1ccccc1
REMARK SMILES IDX 4 1 2 2 1 3 3 4 5 6 6 7 7 8 11 9 8 10 10 11 9 12
REMARK H PARENT 3 5
REMARK Flexibility Score: inf
ROOT
ATOM      1  C   UNL     1       5.044   1.704   0.738  1.00  0.00     0.127 C 
ENDROOT
BRANCH   1   2
ATOM      2  C   UNL     1       4.585   1.011   1.955  1.00  0.00     0.303 C 
ATOM      3  O   UNL     1       5.338   0.153   2.492  1.00  0.00    -0.252 OA
BRANCH   2   4
ATOM      4  O   UNL     1       3.338   1.273   2.541  1.00  0.00    -0.481 OA
ATOM      5  H   UNL     1       3.241   2.093   3.125  1.00  0.00     0.296 HD
ENDBRANCH   2   4
ENDBRANCH   1   2
BRANCH   1   6
ATOM      6  C   UNL     1       6.549   1.898   0.721  1.00  0.00     0.047 C 
BRANCH   6   7
ATOM      7  C   UNL     1       7.178   1.088  -0.355  1.00  0.00    -0.047 A 
ATOM      8  C   UNL     1       6.426   0.187  -1.094  1.00  0.00     0.004 A 
ATOM      9  C   UNL     1       8.522   1.177  -0.670  1.00  0.00     0.004 A 
ATOM     10  C   UNL     1       6.981  -0.585  -2.090  1.00  0.00     0.000 A 
ATOM     11  C   UNL     1       9.076   0.404  -1.667  1.00  0.00     0.000 A 
ATOM     12  C   UNL     1       8.323  -0.490  -2.395  1.00  0.00     0.000 A 
ENDBRANCH   6   7
ENDBRANCH   1   6
TORSDOF 4
ENDMDL
MODEL 5
REMARK VINA RESULT:      -6.6      3.825      4.930
REMARK SMILES O=C(O)CCc1ccccc1
REMARK SMILES IDX 4 1 2 2 1 3 3 4 5 6 6 7 7 8 11 9 8 10 10 11 9 12
REMARK H PARENT 3 5
REMARK Flexibility Score: inf
ROOT
ATOM      1  C   UNL     1       5.512   2.878   0.033  1.00  0.00     0.127 C 
ENDROOT
BRANCH   1   2
ATOM      2  C   UNL     1       6.271   3.858   0.829  1.00  0.00     0.303 C 
ATOM      3  O   UNL     1       6.906   4.771   0.233  1.00  0.00    -0.252 OA
BRANCH   2   4
ATOM      4  O   UNL     1       6.312   3.813   2.230  1.00  0.00    -0.481 OA
ATOM      5  H   UNL     1       5.471   3.560   2.730  1.00  0.00     0.296 HD
ENDBRANCH   2   4
ENDBRANCH   1   2
BRANCH   1   6
ATOM      6  C   UNL     1       4.853   1.821   0.901  1.00  0.00     0.047 C 
BRANCH   6   7
ATOM      7  C   UNL     1       5.681   0.587   0.958  1.00  0.00    -0.047 A 
ATOM      8  C   UNL     1       6.394   0.161  -0.153  1.00  0.00     0.004 A 
ATOM      9  C   UNL     1       5.779  -0.196   2.093  1.00  0.00     0.004 A 
ATOM     10  C   UNL     1       7.160  -0.982  -0.135  1.00  0.00     0.000 A 
ATOM     11  C   UNL     1       6.547  -1.340   2.110  1.00  0.00     0.000 A 
ATOM     12  C   UNL     1       7.250  -1.758   1.003  1.00  0.00     0.000 A 
ENDBRANCH   6   7
ENDBRANCH   1   6
TORSDOF 4
ENDMDL
