@<TRIPOS>MOLECULE
/home/cewinharhar/GITHUB/reincatalyze/data/processed/docking_pred/2023-Apr-25-2248_maxeplen10_maxtrainstep1000_exh16_gamma099_lrac3e-4_lrcr1e-3/d475abeaf77d1f7cad9c775310647ad941a1fd31_ligand_2.pdbqt
 12 12 0 0 0
SMALL
GASTEIGER

@<TRIPOS>ATOM
      1  C          8.4100   -0.6690   -2.1090 C.3     1  UNL1        0.1270
      2  C          8.4380   -1.9160   -2.8940 C.2     1  UNL1        0.3030
      3  O          9.5420   -2.4950   -3.0840 O.2     1  UNL1       -0.2520
      4  O          7.2770   -2.4840   -3.4370 O.3     1  UNL1       -0.4810
      5  H          7.3660   -3.3150   -4.0060 H       1  UNL1        0.2960
      6  C          7.0380   -0.0170   -2.1150 C.3     1  UNL1        0.0470
      7  C          6.4780    0.0590   -0.7410 C.2     1  UNL1       -0.0470
      8  C          5.8200    1.2020   -0.3070 C.2     1  UNL1        0.0040
      9  C          6.5870   -0.9750    0.1700 C.2     1  UNL1        0.0040
     10  C          5.3000    1.3080    0.9620 C.2     1  UNL1        0.0000
     11  C          6.0650   -0.8670    1.4420 C.2     1  UNL1        0.0000
     12  C          5.4150    0.2690    1.8650 C.2     1  UNL1        0.0000
@<TRIPOS>BOND
     1     5     4    1
     2     4     2    1
     3     3     2    2
     4     2     1    1
     5     6     1    1
     6     6     7    1
     7     7     8    2
     8     7     9    1
     9     8    10    1
    10     9    11    2
    11    10    12    2
    12    11    12    1
