@<TRIPOS>MOLECULE
/home/cewinharhar/GITHUB/reincatalyze/data/processed/docking_pred/2023-Apr-25-2248_maxeplen10_maxtrainstep1000_exh16_gamma099_lrac3e-4_lrcr1e-3/d4c602a3745b48528a2ec664cc6a2c0711254731_ligand_2.pdbqt
 12 12 0 0 0
SMALL
GASTEIGER

@<TRIPOS>ATOM
      1  C          8.1290   -1.6190    1.1690 C.3     1  UNL1        0.1270
      2  C          8.4820   -2.7910    0.3470 C.2     1  UNL1        0.3030
      3  O          9.1590   -3.7200    0.8650 O.2     1  UNL1       -0.2520
      4  O          8.0890   -2.9100   -0.9930 O.3     1  UNL1       -0.4810
      5  H          7.1390   -2.6670   -1.2420 H       1  UNL1        0.2960
      6  C          6.6310   -1.5010    1.3860 C.3     1  UNL1        0.0470
      7  C          6.1120   -0.2230    0.8330 C.2     1  UNL1       -0.0470
      8  C          6.3870    0.1450   -0.4770 C.2     1  UNL1        0.0040
      9  C          5.3500    0.6600    1.5760 C.2     1  UNL1        0.0040
     10  C          5.9300    1.3260   -1.0150 C.2     1  UNL1        0.0000
     11  C          4.8930    1.8420    1.0360 C.2     1  UNL1        0.0000
     12  C          5.1710    2.2010   -0.2640 C.2     1  UNL1        0.0000
@<TRIPOS>BOND
     1     5     4    1
     2    10     8    1
     3    10    12    2
     4     4     2    1
     5     8     7    2
     6    12    11    1
     7     2     3    2
     8     2     1    1
     9     7     6    1
    10     7     9    1
    11    11     9    2
    12     1     6    1
