@<TRIPOS>MOLECULE
/home/cewinharhar/GITHUB/reincatalyze/data/processed/docking_pred/2023-Apr-25-2248_maxeplen10_maxtrainstep1000_exh16_gamma099_lrac3e-4_lrcr1e-3/d4c602a3745b48528a2ec664cc6a2c0711254731_ligand_2.pdbqt
 12 12 0 0 0
SMALL
GASTEIGER

@<TRIPOS>ATOM
      1  C          8.5150    0.6710   -1.6140 C.3     1  UNL1        0.1270
      2  C          9.6810    0.2860   -0.7990 C.2     1  UNL1        0.3030
      3  O          9.5170   -0.5070    0.1670 O.2     1  UNL1       -0.2520
      4  O         10.9700    0.7710   -1.0620 O.3     1  UNL1       -0.4810
      5  H         11.5600    1.0240   -0.2810 H       1  UNL1        0.2960
      6  C          7.3320   -0.2550   -1.3970 C.3     1  UNL1        0.0470
      7  C          6.4300    0.2710   -0.3400 C.2     1  UNL1       -0.0470
      8  C          5.7970    1.4960   -0.4950 C.2     1  UNL1        0.0040
      9  C          6.1820   -0.4090    0.8390 C.2     1  UNL1        0.0040
     10  C          4.9650    2.0160    0.4700 C.2     1  UNL1        0.0000
     11  C          5.3470    0.1130    1.8040 C.2     1  UNL1        0.0000
     12  C          4.7240    1.3300    1.6440 C.2     1  UNL1        0.0000
@<TRIPOS>BOND
     1     1     6    1
     2     1     2    1
     3     6     7    1
     4     4     2    1
     5     4     5    1
     6     2     3    2
     7     8     7    2
     8     8    10    1
     9     7     9    1
    10    10    12    2
    11     9    11    2
    12    12    11    1
