@<TRIPOS>MOLECULE
/home/cewinharhar/GITHUB/reincatalyze/data/processed/docking_pred/2023-Apr-25-2248_maxeplen10_maxtrainstep1000_exh16_gamma099_lrac3e-4_lrcr1e-3/d4c602a3745b48528a2ec664cc6a2c0711254731_ligand_2.pdbqt
 12 12 0 0 0
SMALL
GASTEIGER

@<TRIPOS>ATOM
      1  C          8.4270   -0.7250   -2.0370 C.3     1  UNL1        0.1270
      2  C          8.4160   -1.9410   -2.8690 C.2     1  UNL1        0.3030
      3  O          7.3090   -2.4250   -3.2310 O.2     1  UNL1       -0.2520
      4  O          9.5960   -2.5800   -3.2760 O.3     1  UNL1       -0.4810
      5  H         10.4510   -2.0410   -3.3080 H       1  UNL1        0.2960
      6  C          7.1010    0.0120   -2.0800 C.3     1  UNL1        0.0470
      7  C          6.4980    0.1040   -0.7250 C.2     1  UNL1       -0.0470
      8  C          5.8090    1.2420   -0.3330 C.2     1  UNL1        0.0040
      9  C          6.5950   -0.9120    0.2080 C.2     1  UNL1        0.0040
     10  C          5.2490    1.3620    0.9190 C.2     1  UNL1        0.0000
     11  C          6.0340   -0.7910    1.4600 C.2     1  UNL1        0.0000
     12  C          5.3520    0.3420    1.8430 C.2     1  UNL1        0.0000
@<TRIPOS>BOND
     1     5     4    1
     2     4     2    1
     3     3     2    2
     4     2     1    1
     5     6     1    1
     6     6     7    1
     7     7     8    2
     8     7     9    1
     9     8    10    1
    10     9    11    2
    11    10    12    2
    12    11    12    1
