MODEL 1
REMARK VINA RESULT:      -7.3      0.000      0.000
REMARK SMILES O=C(O)CCc1ccccc1
REMARK SMILES IDX 4 1 2 2 1 3 3 4 5 6 6 7 7 8 11 9 8 10 10 11 9 12
REMARK H PARENT 3 5
REMARK Flexibility Score: inf
ROOT
ATOM      1  C   UNL     1       8.427  -0.725  -2.037  1.00  0.00     0.127 C 
ENDROOT
BRANCH   1   2
ATOM      2  C   UNL     1       8.416  -1.941  -2.869  1.00  0.00     0.303 C 
ATOM      3  O   UNL     1       7.309  -2.425  -3.231  1.00  0.00    -0.252 OA
BRANCH   2   4
ATOM      4  O   UNL     1       9.596  -2.580  -3.276  1.00  0.00    -0.481 OA
ATOM      5  H   UNL     1      10.451  -2.041  -3.308  1.00  0.00     0.296 HD
ENDBRANCH   2   4
ENDBRANCH   1   2
BRANCH   1   6
ATOM      6  C   UNL     1       7.101   0.012  -2.080  1.00  0.00     0.047 C 
BRANCH   6   7
ATOM      7  C   UNL     1       6.498   0.104  -0.725  1.00  0.00    -0.047 A 
ATOM      8  C   UNL     1       5.809   1.242  -0.333  1.00  0.00     0.004 A 
ATOM      9  C   UNL     1       6.595  -0.912   0.208  1.00  0.00     0.004 A 
ATOM     10  C   UNL     1       5.249   1.362   0.919  1.00  0.00     0.000 A 
ATOM     11  C   UNL     1       6.034  -0.791   1.460  1.00  0.00     0.000 A 
ATOM     12  C   UNL     1       5.352   0.342   1.843  1.00  0.00     0.000 A 
ENDBRANCH   6   7
ENDBRANCH   1   6
TORSDOF 4
ENDMDL
MODEL 2
REMARK VINA RESULT:      -7.3      0.040      1.421
REMARK SMILES O=C(O)CCc1ccccc1
REMARK SMILES IDX 4 1 2 2 1 3 3 4 5 6 6 7 7 8 11 9 8 10 10 11 9 12
REMARK H PARENT 3 5
REMARK Flexibility Score: inf
ROOT
ATOM      1  C   UNL     1       8.412  -0.687  -2.070  1.00  0.00     0.127 C 
ENDROOT
BRANCH   1   2
ATOM      2  C   UNL     1       8.409  -1.922  -2.874  1.00  0.00     0.303 C 
ATOM      3  O   UNL     1       7.305  -2.420  -3.226  1.00  0.00    -0.252 OA
BRANCH   2   4
ATOM      4  O   UNL     1       9.593  -2.564  -3.262  1.00  0.00    -0.481 OA
ATOM      5  H   UNL     1       9.570  -3.175  -4.067  1.00  0.00     0.296 HD
ENDBRANCH   2   4
ENDBRANCH   1   2
BRANCH   1   6
ATOM      6  C   UNL     1       7.074   0.030  -2.115  1.00  0.00     0.047 C 
BRANCH   6   7
ATOM      7  C   UNL     1       6.490   0.152  -0.754  1.00  0.00    -0.047 A 
ATOM      8  C   UNL     1       6.604  -0.885   0.161  1.00  0.00     0.004 A 
ATOM      9  C   UNL     1       5.804   1.276  -0.332  1.00  0.00     0.004 A 
ATOM     10  C   UNL     1       6.065  -0.807   1.425  1.00  0.00     0.000 A 
ATOM     11  C   UNL     1       5.264   1.353   0.934  1.00  0.00     0.000 A 
ATOM     12  C   UNL     1       5.381   0.319   1.836  1.00  0.00     0.000 A 
ENDBRANCH   6   7
ENDBRANCH   1   6
TORSDOF 4
ENDMDL
MODEL 3
REMARK VINA RESULT:      -6.8      3.327      5.185
REMARK SMILES O=C(O)CCc1ccccc1
REMARK SMILES IDX 4 1 2 2 1 3 3 4 5 6 6 7 7 8 11 9 8 10 10 11 9 12
REMARK H PARENT 3 5
REMARK Flexibility Score: inf
ROOT
ATOM      1  C   UNL     1       5.012   1.743   0.722  1.00  0.00     0.127 C 
ENDROOT
BRANCH   1   2
ATOM      2  C   UNL     1       4.469   1.102   1.933  1.00  0.00     0.303 C 
ATOM      3  O   UNL     1       5.141   0.200   2.502  1.00  0.00    -0.252 OA
BRANCH   2   4
ATOM      4  O   UNL     1       3.228   1.463   2.478  1.00  0.00    -0.481 OA
ATOM      5  H   UNL     1       2.399   0.982   2.153  1.00  0.00     0.296 HD
ENDBRANCH   2   4
ENDBRANCH   1   2
BRANCH   1   6
ATOM      6  C   UNL     1       6.524   1.866   0.767  1.00  0.00     0.047 C 
BRANCH   6   7
ATOM      7  C   UNL     1       7.155   1.079  -0.324  1.00  0.00    -0.047 A 
ATOM      8  C   UNL     1       6.422   0.137  -1.033  1.00  0.00     0.004 A 
ATOM      9  C   UNL     1       8.482   1.227  -0.683  1.00  0.00     0.004 A 
ATOM     10  C   UNL     1       6.980  -0.615  -2.041  1.00  0.00     0.000 A 
ATOM     11  C   UNL     1       9.039   0.473  -1.694  1.00  0.00     0.000 A 
ATOM     12  C   UNL     1       8.306  -0.460  -2.391  1.00  0.00     0.000 A 
ENDBRANCH   6   7
ENDBRANCH   1   6
TORSDOF 4
ENDMDL
MODEL 4
REMARK VINA RESULT:      -6.6      1.892      2.968
REMARK SMILES O=C(O)CCc1ccccc1
REMARK SMILES IDX 4 1 2 2 1 3 3 4 5 6 6 7 7 8 11 9 8 10 10 11 9 12
REMARK H PARENT 3 5
REMARK Flexibility Score: inf
ROOT
ATOM      1  C   UNL     1       8.129  -1.619   1.169  1.00  0.00     0.127 C 
ENDROOT
BRANCH   1   2
ATOM      2  C   UNL     1       8.482  -2.791   0.347  1.00  0.00     0.303 C 
ATOM      3  O   UNL     1       9.159  -3.720   0.865  1.00  0.00    -0.252 OA
BRANCH   2   4
ATOM      4  O   UNL     1       8.089  -2.910  -0.993  1.00  0.00    -0.481 OA
ATOM      5  H   UNL     1       7.139  -2.667  -1.242  1.00  0.00     0.296 HD
ENDBRANCH   2   4
ENDBRANCH   1   2
BRANCH   1   6
ATOM      6  C   UNL     1       6.631  -1.501   1.386  1.00  0.00     0.047 C 
BRANCH   6   7
ATOM      7  C   UNL     1       6.112  -0.223   0.833  1.00  0.00    -0.047 A 
ATOM      8  C   UNL     1       6.387   0.145  -0.477  1.00  0.00     0.004 A 
ATOM      9  C   UNL     1       5.350   0.660   1.576  1.00  0.00     0.004 A 
ATOM     10  C   UNL     1       5.930   1.326  -1.015  1.00  0.00     0.000 A 
ATOM     11  C   UNL     1       4.893   1.842   1.036  1.00  0.00     0.000 A 
ATOM     12  C   UNL     1       5.171   2.201  -0.264  1.00  0.00     0.000 A 
ENDBRANCH   6   7
ENDBRANCH   1   6
TORSDOF 4
ENDMDL
MODEL 5
REMARK VINA RESULT:      -6.5      2.073      2.263
REMARK SMILES O=C(O)CCc1ccccc1
REMARK SMILES IDX 4 1 2 2 1 3 3 4 5 6 6 7 7 8 11 9 8 10 10 11 9 12
REMARK H PARENT 3 5
REMARK Flexibility Score: inf
ROOT
ATOM      1  C   UNL     1       8.515   0.671  -1.614  1.00  0.00     0.127 C 
ENDROOT
BRANCH   1   2
ATOM      2  C   UNL     1       9.681   0.286  -0.799  1.00  0.00     0.303 C 
ATOM      3  O   UNL     1       9.517  -0.507   0.167  1.00  0.00    -0.252 OA
BRANCH   2   4
ATOM      4  O   UNL     1      10.970   0.771  -1.062  1.00  0.00    -0.481 OA
ATOM      5  H   UNL     1      11.560   1.024  -0.281  1.00  0.00     0.296 HD
ENDBRANCH   2   4
ENDBRANCH   1   2
BRANCH   1   6
ATOM      6  C   UNL     1       7.332  -0.255  -1.397  1.00  0.00     0.047 C 
BRANCH   6   7
ATOM      7  C   UNL     1       6.430   0.271  -0.340  1.00  0.00    -0.047 A 
ATOM      8  C   UNL     1       5.797   1.496  -0.495  1.00  0.00     0.004 A 
ATOM      9  C   UNL     1       6.182  -0.409   0.839  1.00  0.00     0.004 A 
ATOM     10  C   UNL     1       4.965   2.016   0.470  1.00  0.00     0.000 A 
ATOM     11  C   UNL     1       5.347   0.113   1.804  1.00  0.00     0.000 A 
ATOM     12  C   UNL     1       4.724   1.330   1.644  1.00  0.00     0.000 A 
ENDBRANCH   6   7
ENDBRANCH   1   6
TORSDOF 4
ENDMDL
