@<TRIPOS>MOLECULE
/home/cewinharhar/GITHUB/reincatalyze/data/processed/docking_pred/2023-Apr-25-2248_maxeplen10_maxtrainstep1000_exh16_gamma099_lrac3e-4_lrcr1e-3/d4c602a3745b48528a2ec664cc6a2c0711254731_ligand_2.pdbqt
 12 12 0 0 0
SMALL
GASTEIGER

@<TRIPOS>ATOM
      1  C          5.0120    1.7430    0.7220 C.3     1  UNL1        0.1270
      2  C          4.4690    1.1020    1.9330 C.2     1  UNL1        0.3030
      3  O          5.1410    0.2000    2.5020 O.2     1  UNL1       -0.2520
      4  O          3.2280    1.4630    2.4780 O.3     1  UNL1       -0.4810
      5  H          2.3990    0.9820    2.1530 H       1  UNL1        0.2960
      6  C          6.5240    1.8660    0.7670 C.3     1  UNL1        0.0470
      7  C          7.1550    1.0790   -0.3240 C.2     1  UNL1       -0.0470
      8  C          6.4220    0.1370   -1.0330 C.2     1  UNL1        0.0040
      9  C          8.4820    1.2270   -0.6830 C.2     1  UNL1        0.0040
     10  C          6.9800   -0.6150   -2.0410 C.2     1  UNL1        0.0000
     11  C          9.0390    0.4730   -1.6940 C.2     1  UNL1        0.0000
     12  C          8.3060   -0.4600   -2.3910 C.2     1  UNL1        0.0000
@<TRIPOS>BOND
     1    12    10    2
     2    12    11    1
     3    10     8    1
     4    11     9    2
     5     8     7    2
     6     9     7    1
     7     7     6    1
     8     1     6    1
     9     1     2    1
    10     2     4    1
    11     2     3    2
    12     5     4    1
