@<TRIPOS>MOLECULE
/home/cewinharhar/GITHUB/reincatalyze/data/processed/docking_pred/2023-Apr-25-2248_maxeplen10_maxtrainstep1000_exh16_gamma099_lrac3e-4_lrcr1e-3/d4c602a3745b48528a2ec664cc6a2c0711254731_ligand_2.pdbqt
 12 12 0 0 0
SMALL
GASTEIGER

@<TRIPOS>ATOM
      1  C          8.4120   -0.6870   -2.0700 C.3     1  UNL1        0.1270
      2  C          8.4090   -1.9220   -2.8740 C.2     1  UNL1        0.3030
      3  O          7.3050   -2.4200   -3.2260 O.2     1  UNL1       -0.2520
      4  O          9.5930   -2.5640   -3.2620 O.3     1  UNL1       -0.4810
      5  H          9.5700   -3.1750   -4.0670 H       1  UNL1        0.2960
      6  C          7.0740    0.0300   -2.1150 C.3     1  UNL1        0.0470
      7  C          6.4900    0.1520   -0.7540 C.2     1  UNL1       -0.0470
      8  C          6.6040   -0.8850    0.1610 C.2     1  UNL1        0.0040
      9  C          5.8040    1.2760   -0.3320 C.2     1  UNL1        0.0040
     10  C          6.0650   -0.8070    1.4250 C.2     1  UNL1        0.0000
     11  C          5.2640    1.3530    0.9340 C.2     1  UNL1        0.0000
     12  C          5.3810    0.3190    1.8360 C.2     1  UNL1        0.0000
@<TRIPOS>BOND
     1     5     4    1
     2     4     2    1
     3     3     2    2
     4     2     1    1
     5     6     1    1
     6     6     7    1
     7     7     9    2
     8     7     8    1
     9     9    11    1
    10     8    10    2
    11    11    12    2
    12    10    12    1
