@<TRIPOS>MOLECULE
/home/cewinharhar/GITHUB/reincatalyze/data/processed/docking_pred/2023-Apr-25-2248_maxeplen10_maxtrainstep1000_exh16_gamma099_lrac3e-4_lrcr1e-3/d68da6ca94917019a71bc3feefe4e6b6d631e6ad_ligand_2.pdbqt
 12 12 0 0 0
SMALL
GASTEIGER

@<TRIPOS>ATOM
      1  C          8.3760   -0.6170   -2.1720 C.3     1  UNL1        0.1270
      2  C          8.3920   -1.8990   -2.8990 C.2     1  UNL1        0.3030
      3  O          7.2960   -2.4250   -3.2360 O.2     1  UNL1       -0.2520
      4  O          9.5850   -2.5550   -3.2310 O.3     1  UNL1       -0.4810
      5  H          9.8940   -2.5390   -4.1940 H       1  UNL1        0.2960
      6  C          6.9960    0.0160   -2.1530 C.3     1  UNL1        0.0470
      7  C          6.4700    0.1040   -0.7660 C.2     1  UNL1       -0.0470
      8  C          6.6240   -0.9540    0.1180 C.2     1  UNL1        0.0040
      9  C          5.8020    1.2170   -0.2890 C.2     1  UNL1        0.0040
     10  C          6.1390   -0.9070    1.4050 C.2     1  UNL1        0.0000
     11  C          5.3170    1.2620    1.0010 C.2     1  UNL1        0.0000
     12  C          5.4730    0.2080    1.8720 C.2     1  UNL1        0.0000
@<TRIPOS>BOND
     1     5     4    1
     2     3     2    2
     3     4     2    1
     4     2     1    1
     5     1     6    1
     6     6     7    1
     7     7     9    2
     8     7     8    1
     9     9    11    1
    10     8    10    2
    11    11    12    2
    12    10    12    1
