MODEL 1
REMARK VINA RESULT:      -7.3      0.000      0.000
REMARK SMILES O=C(O)CCc1ccccc1
REMARK SMILES IDX 4 1 2 2 1 3 3 4 5 6 6 7 7 8 11 9 8 10 10 11 9 12
REMARK H PARENT 3 5
REMARK Flexibility Score: inf
ROOT
ATOM      1  C   UNL     1       8.424  -0.697  -2.091  1.00  0.00     0.127 C 
ENDROOT
BRANCH   1   2
ATOM      2  C   UNL     1       8.453  -1.936  -2.889  1.00  0.00     0.303 C 
ATOM      3  O   UNL     1       9.558  -2.509  -3.090  1.00  0.00    -0.252 OA
BRANCH   2   4
ATOM      4  O   UNL     1       7.291  -2.502  -3.433  1.00  0.00    -0.481 OA
ATOM      5  H   UNL     1       6.844  -2.035  -4.210  1.00  0.00     0.296 HD
ENDBRANCH   2   4
ENDBRANCH   1   2
BRANCH   1   6
ATOM      6  C   UNL     1       7.062  -0.026  -2.122  1.00  0.00     0.047 C 
BRANCH   6   7
ATOM      7  C   UNL     1       6.488   0.076  -0.755  1.00  0.00    -0.047 A 
ATOM      8  C   UNL     1       5.828   1.227  -0.349  1.00  0.00     0.004 A 
ATOM      9  C   UNL     1       6.583  -0.943   0.175  1.00  0.00     0.004 A 
ATOM     10  C   UNL     1       5.295   1.357   0.913  1.00  0.00     0.000 A 
ATOM     11  C   UNL     1       6.048  -0.812   1.438  1.00  0.00     0.000 A 
ATOM     12  C   UNL     1       5.396   0.334   1.834  1.00  0.00     0.000 A 
ENDBRANCH   6   7
ENDBRANCH   1   6
TORSDOF 4
ENDMDL
MODEL 2
REMARK VINA RESULT:      -7.2      0.123      1.724
REMARK SMILES O=C(O)CCc1ccccc1
REMARK SMILES IDX 4 1 2 2 1 3 3 4 5 6 6 7 7 8 11 9 8 10 10 11 9 12
REMARK H PARENT 3 5
REMARK Flexibility Score: inf
ROOT
ATOM      1  C   UNL     1       8.376  -0.617  -2.172  1.00  0.00     0.127 C 
ENDROOT
BRANCH   1   2
ATOM      2  C   UNL     1       8.392  -1.899  -2.899  1.00  0.00     0.303 C 
ATOM      3  O   UNL     1       7.296  -2.425  -3.236  1.00  0.00    -0.252 OA
BRANCH   2   4
ATOM      4  O   UNL     1       9.585  -2.555  -3.231  1.00  0.00    -0.481 OA
ATOM      5  H   UNL     1       9.894  -2.539  -4.194  1.00  0.00     0.296 HD
ENDBRANCH   2   4
ENDBRANCH   1   2
BRANCH   1   6
ATOM      6  C   UNL     1       6.996   0.016  -2.153  1.00  0.00     0.047 C 
BRANCH   6   7
ATOM      7  C   UNL     1       6.470   0.104  -0.766  1.00  0.00    -0.047 A 
ATOM      8  C   UNL     1       6.624  -0.954   0.118  1.00  0.00     0.004 A 
ATOM      9  C   UNL     1       5.802   1.217  -0.289  1.00  0.00     0.004 A 
ATOM     10  C   UNL     1       6.139  -0.907   1.405  1.00  0.00     0.000 A 
ATOM     11  C   UNL     1       5.317   1.262   1.001  1.00  0.00     0.000 A 
ATOM     12  C   UNL     1       5.473   0.208   1.872  1.00  0.00     0.000 A 
ENDBRANCH   6   7
ENDBRANCH   1   6
TORSDOF 4
ENDMDL
MODEL 3
REMARK VINA RESULT:      -6.8      3.397      5.101
REMARK SMILES O=C(O)CCc1ccccc1
REMARK SMILES IDX 4 1 2 2 1 3 3 4 5 6 6 7 7 8 11 9 8 10 10 11 9 12
REMARK H PARENT 3 5
REMARK Flexibility Score: inf
ROOT
ATOM      1  C   UNL     1       5.009   1.782   0.741  1.00  0.00     0.127 C 
ENDROOT
BRANCH   1   2
ATOM      2  C   UNL     1       4.468   1.105   1.933  1.00  0.00     0.303 C 
ATOM      3  O   UNL     1       5.144   0.189   2.475  1.00  0.00    -0.252 OA
BRANCH   2   4
ATOM      4  O   UNL     1       3.226   1.445   2.488  1.00  0.00    -0.481 OA
ATOM      5  H   UNL     1       3.187   2.204   3.154  1.00  0.00     0.296 HD
ENDBRANCH   2   4
ENDBRANCH   1   2
BRANCH   1   6
ATOM      6  C   UNL     1       6.522   1.892   0.780  1.00  0.00     0.047 C 
BRANCH   6   7
ATOM      7  C   UNL     1       7.142   1.109  -0.321  1.00  0.00    -0.047 A 
ATOM      8  C   UNL     1       6.386   0.217  -1.068  1.00  0.00     0.004 A 
ATOM      9  C   UNL     1       8.481   1.214  -0.652  1.00  0.00     0.004 A 
ATOM     10  C   UNL     1       6.933  -0.529  -2.086  1.00  0.00     0.000 A 
ATOM     11  C   UNL     1       9.027   0.465  -1.672  1.00  0.00     0.000 A 
ATOM     12  C   UNL     1       8.271  -0.419  -2.408  1.00  0.00     0.000 A 
ENDBRANCH   6   7
ENDBRANCH   1   6
TORSDOF 4
ENDMDL
MODEL 4
REMARK VINA RESULT:      -6.6      2.001      2.696
REMARK SMILES O=C(O)CCc1ccccc1
REMARK SMILES IDX 4 1 2 2 1 3 3 4 5 6 6 7 7 8 11 9 8 10 10 11 9 12
REMARK H PARENT 3 5
REMARK Flexibility Score: inf
ROOT
ATOM      1  C   UNL     1       8.313   0.377  -1.958  1.00  0.00     0.127 C 
ENDROOT
BRANCH   1   2
ATOM      2  C   UNL     1       9.482   0.401  -1.062  1.00  0.00     0.303 C 
ATOM      3  O   UNL     1       9.519  -0.393  -0.082  1.00  0.00    -0.252 OA
BRANCH   2   4
ATOM      4  O   UNL     1      10.560   1.275  -1.261  1.00  0.00    -0.481 OA
ATOM      5  H   UNL     1      11.026   1.272  -2.158  1.00  0.00     0.296 HD
ENDBRANCH   2   4
ENDBRANCH   1   2
BRANCH   1   6
ATOM      6  C   UNL     1       7.211  -0.531  -1.441  1.00  0.00     0.047 C 
BRANCH   6   7
ATOM      7  C   UNL     1       6.389   0.161  -0.414  1.00  0.00    -0.047 A 
ATOM      8  C   UNL     1       6.167  -0.422   0.825  1.00  0.00     0.004 A 
ATOM      9  C   UNL     1       5.801   1.394  -0.632  1.00  0.00     0.004 A 
ATOM     10  C   UNL     1       5.402   0.188   1.793  1.00  0.00     0.000 A 
ATOM     11  C   UNL     1       5.035   2.003   0.338  1.00  0.00     0.000 A 
ATOM     12  C   UNL     1       4.818   1.418   1.565  1.00  0.00     0.000 A 
ENDBRANCH   6   7
ENDBRANCH   1   6
TORSDOF 4
ENDMDL
MODEL 5
REMARK VINA RESULT:      -6.6      3.823      4.953
REMARK SMILES O=C(O)CCc1ccccc1
REMARK SMILES IDX 4 1 2 2 1 3 3 4 5 6 6 7 7 8 11 9 8 10 10 11 9 12
REMARK H PARENT 3 5
REMARK Flexibility Score: inf
ROOT
ATOM      1  C   UNL     1       5.506   2.908   0.072  1.00  0.00     0.127 C 
ENDROOT
BRANCH   1   2
ATOM      2  C   UNL     1       6.284   3.845   0.901  1.00  0.00     0.303 C 
ATOM      3  O   UNL     1       6.923   4.775   0.338  1.00  0.00    -0.252 OA
BRANCH   2   4
ATOM      4  O   UNL     1       6.339   3.739   2.298  1.00  0.00    -0.481 OA
ATOM      5  H   UNL     1       6.626   2.860   2.706  1.00  0.00     0.296 HD
ENDBRANCH   2   4
ENDBRANCH   1   2
BRANCH   1   6
ATOM      6  C   UNL     1       4.884   1.793   0.895  1.00  0.00     0.047 C 
BRANCH   6   7
ATOM      7  C   UNL     1       5.743   0.581   0.884  1.00  0.00    -0.047 A 
ATOM      8  C   UNL     1       6.474   0.241  -0.246  1.00  0.00     0.004 A 
ATOM      9  C   UNL     1       5.855  -0.267   1.970  1.00  0.00     0.004 A 
ATOM     10  C   UNL     1       7.270  -0.881  -0.291  1.00  0.00     0.000 A 
ATOM     11  C   UNL     1       6.653  -1.391   1.923  1.00  0.00     0.000 A 
ATOM     12  C   UNL     1       7.373  -1.721   0.799  1.00  0.00     0.000 A 
ENDBRANCH   6   7
ENDBRANCH   1   6
TORSDOF 4
ENDMDL
