@<TRIPOS>MOLECULE
/home/cewinharhar/GITHUB/reincatalyze/data/processed/docking_pred/2023-Apr-25-2248_maxeplen10_maxtrainstep1000_exh16_gamma099_lrac3e-4_lrcr1e-3/d68da6ca94917019a71bc3feefe4e6b6d631e6ad_ligand_2.pdbqt
 12 12 0 0 0
SMALL
GASTEIGER

@<TRIPOS>ATOM
      1  C          8.3130    0.3770   -1.9580 C.3     1  UNL1        0.1270
      2  C          9.4820    0.4010   -1.0620 C.2     1  UNL1        0.3030
      3  O          9.5190   -0.3930   -0.0820 O.2     1  UNL1       -0.2520
      4  O         10.5600    1.2750   -1.2610 O.3     1  UNL1       -0.4810
      5  H         11.0260    1.2720   -2.1580 H       1  UNL1        0.2960
      6  C          7.2110   -0.5310   -1.4410 C.3     1  UNL1        0.0470
      7  C          6.3890    0.1610   -0.4140 C.2     1  UNL1       -0.0470
      8  C          6.1670   -0.4220    0.8250 C.2     1  UNL1        0.0040
      9  C          5.8010    1.3940   -0.6320 C.2     1  UNL1        0.0040
     10  C          5.4020    0.1880    1.7930 C.2     1  UNL1        0.0000
     11  C          5.0350    2.0030    0.3380 C.2     1  UNL1        0.0000
     12  C          4.8180    1.4180    1.5650 C.2     1  UNL1        0.0000
@<TRIPOS>BOND
     1     5     4    1
     2     1     6    1
     3     1     2    1
     4     6     7    1
     5     4     2    1
     6     2     3    2
     7     9     7    2
     8     9    11    1
     9     7     8    1
    10    11    12    2
    11     8    10    2
    12    12    10    1
