@<TRIPOS>MOLECULE
/home/cewinharhar/GITHUB/reincatalyze/data/processed/docking_pred/2023-Apr-25-2248_maxeplen10_maxtrainstep1000_exh16_gamma099_lrac3e-4_lrcr1e-3/d68da6ca94917019a71bc3feefe4e6b6d631e6ad_ligand_2.pdbqt
 12 12 0 0 0
SMALL
GASTEIGER

@<TRIPOS>ATOM
      1  C          5.5060    2.9080    0.0720 C.3     1  UNL1        0.1270
      2  C          6.2840    3.8450    0.9010 C.2     1  UNL1        0.3030
      3  O          6.9230    4.7750    0.3380 O.2     1  UNL1       -0.2520
      4  O          6.3390    3.7390    2.2980 O.3     1  UNL1       -0.4810
      5  H          6.6260    2.8600    2.7060 H       1  UNL1        0.2960
      6  C          4.8840    1.7930    0.8950 C.3     1  UNL1        0.0470
      7  C          5.7430    0.5810    0.8840 C.2     1  UNL1       -0.0470
      8  C          6.4740    0.2410   -0.2460 C.2     1  UNL1        0.0040
      9  C          5.8550   -0.2670    1.9700 C.2     1  UNL1        0.0040
     10  C          7.2700   -0.8810   -0.2910 C.2     1  UNL1        0.0000
     11  C          6.6530   -1.3910    1.9230 C.2     1  UNL1        0.0000
     12  C          7.3730   -1.7210    0.7990 C.2     1  UNL1        0.0000
@<TRIPOS>BOND
     1    10     8    1
     2    10    12    2
     3     8     7    2
     4     1     6    1
     5     1     2    1
     6     3     2    2
     7    12    11    1
     8     7     6    1
     9     7     9    1
    10     2     4    1
    11    11     9    2
    12     4     5    1
