@<TRIPOS>MOLECULE
/home/cewinharhar/GITHUB/reincatalyze/data/processed/docking_pred/2023-Apr-25-2248_maxeplen10_maxtrainstep1000_exh16_gamma099_lrac3e-4_lrcr1e-3/d68da6ca94917019a71bc3feefe4e6b6d631e6ad_ligand_2.pdbqt
 12 12 0 0 0
SMALL
GASTEIGER

@<TRIPOS>ATOM
      1  C          5.0090    1.7820    0.7410 C.3     1  UNL1        0.1270
      2  C          4.4680    1.1050    1.9330 C.2     1  UNL1        0.3030
      3  O          5.1440    0.1890    2.4750 O.2     1  UNL1       -0.2520
      4  O          3.2260    1.4450    2.4880 O.3     1  UNL1       -0.4810
      5  H          3.1870    2.2040    3.1540 H       1  UNL1        0.2960
      6  C          6.5220    1.8920    0.7800 C.3     1  UNL1        0.0470
      7  C          7.1420    1.1090   -0.3210 C.2     1  UNL1       -0.0470
      8  C          6.3860    0.2170   -1.0680 C.2     1  UNL1        0.0040
      9  C          8.4810    1.2140   -0.6520 C.2     1  UNL1        0.0040
     10  C          6.9330   -0.5290   -2.0860 C.2     1  UNL1        0.0000
     11  C          9.0270    0.4650   -1.6720 C.2     1  UNL1        0.0000
     12  C          8.2710   -0.4190   -2.4080 C.2     1  UNL1        0.0000
@<TRIPOS>BOND
     1    12    10    2
     2    12    11    1
     3    10     8    1
     4    11     9    2
     5     8     7    2
     6     9     7    1
     7     7     6    1
     8     1     6    1
     9     1     2    1
    10     2     3    2
    11     2     4    1
    12     4     5    1
