@<TRIPOS>MOLECULE
/home/cewinharhar/GITHUB/reincatalyze/data/processed/docking_pred/2023-Apr-25-2248_maxeplen10_maxtrainstep1000_exh16_gamma099_lrac3e-4_lrcr1e-3/d68da6ca94917019a71bc3feefe4e6b6d631e6ad_ligand_2.pdbqt
 12 12 0 0 0
SMALL
GASTEIGER

@<TRIPOS>ATOM
      1  C          8.4240   -0.6970   -2.0910 C.3     1  UNL1        0.1270
      2  C          8.4530   -1.9360   -2.8890 C.2     1  UNL1        0.3030
      3  O          9.5580   -2.5090   -3.0900 O.2     1  UNL1       -0.2520
      4  O          7.2910   -2.5020   -3.4330 O.3     1  UNL1       -0.4810
      5  H          6.8440   -2.0350   -4.2100 H       1  UNL1        0.2960
      6  C          7.0620   -0.0260   -2.1220 C.3     1  UNL1        0.0470
      7  C          6.4880    0.0760   -0.7550 C.2     1  UNL1       -0.0470
      8  C          5.8280    1.2270   -0.3490 C.2     1  UNL1        0.0040
      9  C          6.5830   -0.9430    0.1750 C.2     1  UNL1        0.0040
     10  C          5.2950    1.3570    0.9130 C.2     1  UNL1        0.0000
     11  C          6.0480   -0.8120    1.4380 C.2     1  UNL1        0.0000
     12  C          5.3960    0.3340    1.8340 C.2     1  UNL1        0.0000
@<TRIPOS>BOND
     1     5     4    1
     2     4     2    1
     3     3     2    2
     4     2     1    1
     5     6     1    1
     6     6     7    1
     7     7     8    2
     8     7     9    1
     9     8    10    1
    10     9    11    2
    11    10    12    2
    12    11    12    1
