@<TRIPOS>MOLECULE
/home/cewinharhar/GITHUB/reincatalyze/data/processed/docking_pred/2023-Apr-25-2248_maxeplen10_maxtrainstep1000_exh16_gamma099_lrac3e-4_lrcr1e-3/d6fa7c89c21ca11aa73af88b15ecc664e93337c3_ligand_2.pdbqt
 12 12 0 0 0
SMALL
GASTEIGER

@<TRIPOS>ATOM
      1  C          8.3950   -0.6440   -2.1380 C.3     1  UNL1        0.1270
      2  C          8.3990   -1.9110   -2.8910 C.2     1  UNL1        0.3030
      3  O          7.2990   -2.4170   -3.2440 O.2     1  UNL1       -0.2520
      4  O          9.5860   -2.5770   -3.2300 O.3     1  UNL1       -0.4810
      5  H          9.7290   -3.5160   -2.8860 H       1  UNL1        0.2960
      6  C          7.0300    0.0190   -2.1380 C.3     1  UNL1        0.0470
      7  C          6.4820    0.1110   -0.7600 C.2     1  UNL1       -0.0470
      8  C          6.6310   -0.9410    0.1330 C.2     1  UNL1        0.0040
      9  C          5.7990    1.2220   -0.2980 C.2     1  UNL1        0.0040
     10  C          6.1260   -0.8900    1.4120 C.2     1  UNL1        0.0000
     11  C          5.2950    1.2710    0.9830 C.2     1  UNL1        0.0000
     12  C          5.4450    0.2220    1.8620 C.2     1  UNL1        0.0000
@<TRIPOS>BOND
     1     3     2    2
     2     4     2    1
     3     4     5    1
     4     2     1    1
     5     1     6    1
     6     6     7    1
     7     7     9    2
     8     7     8    1
     9     9    11    1
    10     8    10    2
    11    11    12    2
    12    10    12    1
