@<TRIPOS>MOLECULE
/home/cewinharhar/GITHUB/reincatalyze/data/processed/docking_pred/2023-Apr-25-2248_maxeplen10_maxtrainstep1000_exh16_gamma099_lrac3e-4_lrcr1e-3/d6fa7c89c21ca11aa73af88b15ecc664e93337c3_ligand_2.pdbqt
 12 12 0 0 0
SMALL
GASTEIGER

@<TRIPOS>ATOM
      1  C          5.0110    1.7740    0.7180 C.3     1  UNL1        0.1270
      2  C          4.4980    1.1060    1.9280 C.2     1  UNL1        0.3030
      3  O          5.2020    0.2200    2.4830 O.2     1  UNL1       -0.2520
      4  O          3.2520    1.4240    2.4870 O.3     1  UNL1       -0.4810
      5  H          2.6420    2.0530    1.9820 H       1  UNL1        0.2960
      6  C          6.5240    1.9000    0.7300 C.3     1  UNL1        0.0470
      7  C          7.1350    1.0800   -0.3480 C.2     1  UNL1       -0.0470
      8  C          8.4880    1.1860   -0.6380 C.2     1  UNL1        0.0040
      9  C          6.4060    0.1900   -1.1160 C.2     1  UNL1        0.0040
     10  C          9.0810    0.4490   -1.6370 C.2     1  UNL1        0.0000
     11  C          7.0020   -0.5480   -2.1160 C.2     1  UNL1        0.0000
     12  C          8.3440   -0.4360   -2.3990 C.2     1  UNL1        0.0000
@<TRIPOS>BOND
     1    12    11    2
     2    12    10    1
     3    11     9    1
     4    10     8    2
     5     9     7    2
     6     8     7    1
     7     7     6    1
     8     1     6    1
     9     1     2    1
    10     2     3    2
    11     2     4    1
    12     5     4    1
