@<TRIPOS>MOLECULE
/home/cewinharhar/GITHUB/reincatalyze/data/processed/docking_pred/2023-Apr-25-2248_maxeplen10_maxtrainstep1000_exh16_gamma099_lrac3e-4_lrcr1e-3/d6fa7c89c21ca11aa73af88b15ecc664e93337c3_ligand_2.pdbqt
 12 12 0 0 0
SMALL
GASTEIGER

@<TRIPOS>ATOM
      1  C          8.4230   -0.6030   -2.1920 C.3     1  UNL1        0.1270
      2  C          8.4550   -1.8870   -2.9150 C.2     1  UNL1        0.3030
      3  O          9.5630   -2.4640   -3.0890 O.2     1  UNL1       -0.2520
      4  O          7.2940   -2.4930   -3.4170 O.3     1  UNL1       -0.4810
      5  H          6.7200   -1.9730   -4.0660 H       1  UNL1        0.2960
      6  C          7.0330    0.0080   -2.1690 C.3     1  UNL1        0.0470
      7  C          6.5010    0.0710   -0.7830 C.2     1  UNL1       -0.0470
      8  C          5.8710    1.2160   -0.3180 C.2     1  UNL1        0.0040
      9  C          6.6100   -0.9800    0.1090 C.2     1  UNL1        0.0040
     10  C          5.3780    1.3100    0.9630 C.2     1  UNL1        0.0000
     11  C          6.1150   -0.8850    1.3920 C.2     1  UNL1        0.0000
     12  C          5.4920    0.2550    1.8460 C.2     1  UNL1        0.0000
@<TRIPOS>BOND
     1     5     4    1
     2     4     2    1
     3     3     2    2
     4     2     1    1
     5     1     6    1
     6     6     7    1
     7     7     8    2
     8     7     9    1
     9     8    10    1
    10     9    11    2
    11    10    12    2
    12    11    12    1
