MODEL 1
REMARK VINA RESULT:      -7.3      0.000      0.000
REMARK SMILES O=C(O)CCc1ccccc1
REMARK SMILES IDX 4 1 2 2 1 3 3 4 5 6 6 7 7 8 11 9 8 10 10 11 9 12
REMARK H PARENT 3 5
REMARK Flexibility Score: inf
ROOT
ATOM      1  C   UNL     1       8.423  -0.603  -2.192  1.00  0.00     0.127 C 
ENDROOT
BRANCH   1   2
ATOM      2  C   UNL     1       8.455  -1.887  -2.915  1.00  0.00     0.303 C 
ATOM      3  O   UNL     1       9.563  -2.464  -3.089  1.00  0.00    -0.252 OA
BRANCH   2   4
ATOM      4  O   UNL     1       7.294  -2.493  -3.417  1.00  0.00    -0.481 OA
ATOM      5  H   UNL     1       6.720  -1.973  -4.066  1.00  0.00     0.296 HD
ENDBRANCH   2   4
ENDBRANCH   1   2
BRANCH   1   6
ATOM      6  C   UNL     1       7.033   0.008  -2.169  1.00  0.00     0.047 C 
BRANCH   6   7
ATOM      7  C   UNL     1       6.501   0.071  -0.783  1.00  0.00    -0.047 A 
ATOM      8  C   UNL     1       5.871   1.216  -0.318  1.00  0.00     0.004 A 
ATOM      9  C   UNL     1       6.610  -0.980   0.109  1.00  0.00     0.004 A 
ATOM     10  C   UNL     1       5.378   1.310   0.963  1.00  0.00     0.000 A 
ATOM     11  C   UNL     1       6.115  -0.885   1.392  1.00  0.00     0.000 A 
ATOM     12  C   UNL     1       5.492   0.255   1.846  1.00  0.00     0.000 A 
ENDBRANCH   6   7
ENDBRANCH   1   6
TORSDOF 4
ENDMDL
MODEL 2
REMARK VINA RESULT:      -7.2      0.097      1.723
REMARK SMILES O=C(O)CCc1ccccc1
REMARK SMILES IDX 4 1 2 2 1 3 3 4 5 6 6 7 7 8 11 9 8 10 10 11 9 12
REMARK H PARENT 3 5
REMARK Flexibility Score: inf
ROOT
ATOM      1  C   UNL     1       8.395  -0.644  -2.138  1.00  0.00     0.127 C 
ENDROOT
BRANCH   1   2
ATOM      2  C   UNL     1       8.399  -1.911  -2.891  1.00  0.00     0.303 C 
ATOM      3  O   UNL     1       7.299  -2.417  -3.244  1.00  0.00    -0.252 OA
BRANCH   2   4
ATOM      4  O   UNL     1       9.586  -2.577  -3.230  1.00  0.00    -0.481 OA
ATOM      5  H   UNL     1       9.729  -3.516  -2.886  1.00  0.00     0.296 HD
ENDBRANCH   2   4
ENDBRANCH   1   2
BRANCH   1   6
ATOM      6  C   UNL     1       7.030   0.019  -2.138  1.00  0.00     0.047 C 
BRANCH   6   7
ATOM      7  C   UNL     1       6.482   0.111  -0.760  1.00  0.00    -0.047 A 
ATOM      8  C   UNL     1       6.631  -0.941   0.133  1.00  0.00     0.004 A 
ATOM      9  C   UNL     1       5.799   1.222  -0.298  1.00  0.00     0.004 A 
ATOM     10  C   UNL     1       6.126  -0.890   1.412  1.00  0.00     0.000 A 
ATOM     11  C   UNL     1       5.295   1.271   0.983  1.00  0.00     0.000 A 
ATOM     12  C   UNL     1       5.445   0.222   1.862  1.00  0.00     0.000 A 
ENDBRANCH   6   7
ENDBRANCH   1   6
TORSDOF 4
ENDMDL
MODEL 3
REMARK VINA RESULT:      -7.2      0.706      1.256
REMARK SMILES O=C(O)CCc1ccccc1
REMARK SMILES IDX 4 1 2 2 1 3 3 4 5 6 6 7 7 8 11 9 8 10 10 11 9 12
REMARK H PARENT 3 5
REMARK Flexibility Score: inf
ROOT
ATOM      1  C   UNL     1       8.261  -1.034  -1.739  1.00  0.00     0.127 C 
ENDROOT
BRANCH   1   2
ATOM      2  C   UNL     1       8.380  -2.034  -2.816  1.00  0.00     0.303 C 
ATOM      3  O   UNL     1       9.523  -2.471  -3.121  1.00  0.00    -0.252 OA
BRANCH   2   4
ATOM      4  O   UNL     1       7.264  -2.519  -3.513  1.00  0.00    -0.481 OA
ATOM      5  H   UNL     1       7.351  -3.392  -4.016  1.00  0.00     0.296 HD
ENDBRANCH   2   4
ENDBRANCH   1   2
BRANCH   1   6
ATOM      6  C   UNL     1       7.359  -1.508  -0.613  1.00  0.00     0.047 C 
BRANCH   6   7
ATOM      7  C   UNL     1       6.541  -0.388  -0.079  1.00  0.00    -0.047 A 
ATOM      8  C   UNL     1       6.250   0.715  -0.868  1.00  0.00     0.004 A 
ATOM      9  C   UNL     1       6.042  -0.375   1.211  1.00  0.00     0.004 A 
ATOM     10  C   UNL     1       5.505   1.773  -0.399  1.00  0.00     0.000 A 
ATOM     11  C   UNL     1       5.296   0.684   1.679  1.00  0.00     0.000 A 
ATOM     12  C   UNL     1       5.012   1.776   0.891  1.00  0.00     0.000 A 
ENDBRANCH   6   7
ENDBRANCH   1   6
TORSDOF 4
ENDMDL
MODEL 4
REMARK VINA RESULT:      -6.8      3.386      5.067
REMARK SMILES O=C(O)CCc1ccccc1
REMARK SMILES IDX 4 1 2 2 1 3 3 4 5 6 6 7 7 8 11 9 8 10 10 11 9 12
REMARK H PARENT 3 5
REMARK Flexibility Score: inf
ROOT
ATOM      1  C   UNL     1       5.011   1.774   0.718  1.00  0.00     0.127 C 
ENDROOT
BRANCH   1   2
ATOM      2  C   UNL     1       4.498   1.106   1.928  1.00  0.00     0.303 C 
ATOM      3  O   UNL     1       5.202   0.220   2.483  1.00  0.00    -0.252 OA
BRANCH   2   4
ATOM      4  O   UNL     1       3.252   1.424   2.487  1.00  0.00    -0.481 OA
ATOM      5  H   UNL     1       2.642   2.053   1.982  1.00  0.00     0.296 HD
ENDBRANCH   2   4
ENDBRANCH   1   2
BRANCH   1   6
ATOM      6  C   UNL     1       6.524   1.900   0.730  1.00  0.00     0.047 C 
BRANCH   6   7
ATOM      7  C   UNL     1       7.135   1.080  -0.348  1.00  0.00    -0.047 A 
ATOM      8  C   UNL     1       8.488   1.186  -0.638  1.00  0.00     0.004 A 
ATOM      9  C   UNL     1       6.406   0.190  -1.116  1.00  0.00     0.004 A 
ATOM     10  C   UNL     1       9.081   0.449  -1.637  1.00  0.00     0.000 A 
ATOM     11  C   UNL     1       7.002  -0.548  -2.116  1.00  0.00     0.000 A 
ATOM     12  C   UNL     1       8.344  -0.436  -2.399  1.00  0.00     0.000 A 
ENDBRANCH   6   7
ENDBRANCH   1   6
TORSDOF 4
ENDMDL
MODEL 5
REMARK VINA RESULT:      -6.6      1.977      2.712
REMARK SMILES O=C(O)CCc1ccccc1
REMARK SMILES IDX 4 1 2 2 1 3 3 4 5 6 6 7 7 8 11 9 8 10 10 11 9 12
REMARK H PARENT 3 5
REMARK Flexibility Score: inf
ROOT
ATOM      1  C   UNL     1       8.359   0.365  -2.051  1.00  0.00     0.127 C 
ENDROOT
BRANCH   1   2
ATOM      2  C   UNL     1       9.471   0.392  -1.085  1.00  0.00     0.303 C 
ATOM      3  O   UNL     1       9.460  -0.415  -0.116  1.00  0.00    -0.252 OA
BRANCH   2   4
ATOM      4  O   UNL     1      10.545   1.286  -1.205  1.00  0.00    -0.481 OA
ATOM      5  H   UNL     1      10.561   1.919  -1.993  1.00  0.00     0.296 HD
ENDBRANCH   2   4
ENDBRANCH   1   2
BRANCH   1   6
ATOM      6  C   UNL     1       7.194  -0.477  -1.562  1.00  0.00     0.047 C 
BRANCH   6   7
ATOM      7  C   UNL     1       6.381   0.268  -0.565  1.00  0.00    -0.047 A 
ATOM      8  C   UNL     1       6.141  -0.265   0.693  1.00  0.00     0.004 A 
ATOM      9  C   UNL     1       5.818   1.503  -0.831  1.00  0.00     0.004 A 
ATOM     10  C   UNL     1       5.383   0.394   1.633  1.00  0.00     0.000 A 
ATOM     11  C   UNL     1       5.060   2.162   0.112  1.00  0.00     0.000 A 
ATOM     12  C   UNL     1       4.825   1.626   1.358  1.00  0.00     0.000 A 
ENDBRANCH   6   7
ENDBRANCH   1   6
TORSDOF 4
ENDMDL
