@<TRIPOS>MOLECULE
/home/cewinharhar/GITHUB/reincatalyze/data/processed/docking_pred/2023-Apr-25-2248_maxeplen10_maxtrainstep1000_exh16_gamma099_lrac3e-4_lrcr1e-3/d6fa7c89c21ca11aa73af88b15ecc664e93337c3_ligand_2.pdbqt
 12 12 0 0 0
SMALL
GASTEIGER

@<TRIPOS>ATOM
      1  C          8.2610   -1.0340   -1.7390 C.3     1  UNL1        0.1270
      2  C          8.3800   -2.0340   -2.8160 C.2     1  UNL1        0.3030
      3  O          9.5230   -2.4710   -3.1210 O.2     1  UNL1       -0.2520
      4  O          7.2640   -2.5190   -3.5130 O.3     1  UNL1       -0.4810
      5  H          7.3510   -3.3920   -4.0160 H       1  UNL1        0.2960
      6  C          7.3590   -1.5080   -0.6130 C.3     1  UNL1        0.0470
      7  C          6.5410   -0.3880   -0.0790 C.2     1  UNL1       -0.0470
      8  C          6.2500    0.7150   -0.8680 C.2     1  UNL1        0.0040
      9  C          6.0420   -0.3750    1.2110 C.2     1  UNL1        0.0040
     10  C          5.5050    1.7730   -0.3990 C.2     1  UNL1        0.0000
     11  C          5.2960    0.6840    1.6790 C.2     1  UNL1        0.0000
     12  C          5.0120    1.7760    0.8910 C.2     1  UNL1        0.0000
@<TRIPOS>BOND
     1     5     4    1
     2     4     2    1
     3     3     2    2
     4     2     1    1
     5     1     6    1
     6     8    10    1
     7     8     7    2
     8     6     7    1
     9    10    12    2
    10     7     9    1
    11    12    11    1
    12     9    11    2
