@<TRIPOS>MOLECULE
/home/cewinharhar/GITHUB/reincatalyze/data/processed/docking_pred/2023-Apr-25-2248_maxeplen10_maxtrainstep1000_exh16_gamma099_lrac3e-4_lrcr1e-3/d6fa7c89c21ca11aa73af88b15ecc664e93337c3_ligand_2.pdbqt
 12 12 0 0 0
SMALL
GASTEIGER

@<TRIPOS>ATOM
      1  C          8.3590    0.3650   -2.0510 C.3     1  UNL1        0.1270
      2  C          9.4710    0.3920   -1.0850 C.2     1  UNL1        0.3030
      3  O          9.4600   -0.4150   -0.1160 O.2     1  UNL1       -0.2520
      4  O         10.5450    1.2860   -1.2050 O.3     1  UNL1       -0.4810
      5  H         10.5610    1.9190   -1.9930 H       1  UNL1        0.2960
      6  C          7.1940   -0.4770   -1.5620 C.3     1  UNL1        0.0470
      7  C          6.3810    0.2680   -0.5650 C.2     1  UNL1       -0.0470
      8  C          6.1410   -0.2650    0.6930 C.2     1  UNL1        0.0040
      9  C          5.8180    1.5030   -0.8310 C.2     1  UNL1        0.0040
     10  C          5.3830    0.3940    1.6330 C.2     1  UNL1        0.0000
     11  C          5.0600    2.1620    0.1120 C.2     1  UNL1        0.0000
     12  C          4.8250    1.6260    1.3580 C.2     1  UNL1        0.0000
@<TRIPOS>BOND
     1     1     6    1
     2     1     2    1
     3     5     4    1
     4     6     7    1
     5     4     2    1
     6     2     3    2
     7     9     7    2
     8     9    11    1
     9     7     8    1
    10    11    12    2
    11     8    10    2
    12    12    10    1
