MODEL 1
REMARK VINA RESULT:      -7.3      0.000      0.000
REMARK SMILES O=C(O)CCc1ccccc1
REMARK SMILES IDX 4 1 2 2 1 3 3 4 5 6 6 7 7 8 11 9 8 10 10 11 9 12
REMARK H PARENT 3 5
REMARK Flexibility Score: inf
ROOT
ATOM      1  C   UNL     1       8.394  -0.656  -2.122  1.00  0.00     0.127 C 
ENDROOT
BRANCH   1   2
ATOM      2  C   UNL     1       8.400  -1.913  -2.891  1.00  0.00     0.303 C 
ATOM      3  O   UNL     1       7.301  -2.422  -3.241  1.00  0.00    -0.252 OA
BRANCH   2   4
ATOM      4  O   UNL     1       9.590  -2.564  -3.249  1.00  0.00    -0.481 OA
ATOM      5  H   UNL     1       9.629  -3.572  -3.180  1.00  0.00     0.296 HD
ENDBRANCH   2   4
ENDBRANCH   1   2
BRANCH   1   6
ATOM      6  C   UNL     1       7.034   0.018  -2.136  1.00  0.00     0.047 C 
BRANCH   6   7
ATOM      7  C   UNL     1       6.476   0.122  -0.762  1.00  0.00    -0.047 A 
ATOM      8  C   UNL     1       6.618  -0.923   0.140  1.00  0.00     0.004 A 
ATOM      9  C   UNL     1       5.789   1.236  -0.315  1.00  0.00     0.004 A 
ATOM     10  C   UNL     1       6.104  -0.862   1.415  1.00  0.00     0.000 A 
ATOM     11  C   UNL     1       5.276   1.295   0.962  1.00  0.00     0.000 A 
ATOM     12  C   UNL     1       5.419   0.254   1.851  1.00  0.00     0.000 A 
ENDBRANCH   6   7
ENDBRANCH   1   6
TORSDOF 4
ENDMDL
MODEL 2
REMARK VINA RESULT:      -7.2      0.031      1.421
REMARK SMILES O=C(O)CCc1ccccc1
REMARK SMILES IDX 4 1 2 2 1 3 3 4 5 6 6 7 7 8 11 9 8 10 10 11 9 12
REMARK H PARENT 3 5
REMARK Flexibility Score: inf
ROOT
ATOM      1  C   UNL     1       8.380  -0.629  -2.157  1.00  0.00     0.127 C 
ENDROOT
BRANCH   1   2
ATOM      2  C   UNL     1       8.390  -1.901  -2.901  1.00  0.00     0.303 C 
ATOM      3  O   UNL     1       7.292  -2.416  -3.247  1.00  0.00    -0.252 OA
BRANCH   2   4
ATOM      4  O   UNL     1       9.580  -2.561  -3.239  1.00  0.00    -0.481 OA
ATOM      5  H   UNL     1       9.529  -3.521  -3.552  1.00  0.00     0.296 HD
ENDBRANCH   2   4
ENDBRANCH   1   2
BRANCH   1   6
ATOM      6  C   UNL     1       7.005   0.014  -2.138  1.00  0.00     0.047 C 
BRANCH   6   7
ATOM      7  C   UNL     1       6.466   0.076  -0.754  1.00  0.00    -0.047 A 
ATOM      8  C   UNL     1       5.798   1.207  -0.305  1.00  0.00     0.004 A 
ATOM      9  C   UNL     1       6.604  -0.960   0.151  1.00  0.00     0.004 A 
ATOM     10  C   UNL     1       5.297   1.300   0.973  1.00  0.00     0.000 A 
ATOM     11  C   UNL     1       6.102  -0.866   1.431  1.00  0.00     0.000 A 
ATOM     12  C   UNL     1       5.441   0.260   1.869  1.00  0.00     0.000 A 
ENDBRANCH   6   7
ENDBRANCH   1   6
TORSDOF 4
ENDMDL
MODEL 3
REMARK VINA RESULT:      -6.8      3.325      5.169
REMARK SMILES O=C(O)CCc1ccccc1
REMARK SMILES IDX 4 1 2 2 1 3 3 4 5 6 6 7 7 8 11 9 8 10 10 11 9 12
REMARK H PARENT 3 5
REMARK Flexibility Score: inf
ROOT
ATOM      1  C   UNL     1       5.010   1.809   0.740  1.00  0.00     0.127 C 
ENDROOT
BRANCH   1   2
ATOM      2  C   UNL     1       4.472   1.121   1.928  1.00  0.00     0.303 C 
ATOM      3  O   UNL     1       5.153   0.206   2.466  1.00  0.00    -0.252 OA
BRANCH   2   4
ATOM      4  O   UNL     1       3.228   1.450   2.483  1.00  0.00    -0.481 OA
ATOM      5  H   UNL     1       2.713   0.732   2.976  1.00  0.00     0.296 HD
ENDBRANCH   2   4
ENDBRANCH   1   2
BRANCH   1   6
ATOM      6  C   UNL     1       6.525   1.897   0.765  1.00  0.00     0.047 C 
BRANCH   6   7
ATOM      7  C   UNL     1       7.124   1.087  -0.327  1.00  0.00    -0.047 A 
ATOM      8  C   UNL     1       8.469   1.212  -0.645  1.00  0.00     0.004 A 
ATOM      9  C   UNL     1       6.391   0.189  -1.081  1.00  0.00     0.004 A 
ATOM     10  C   UNL     1       9.051   0.483  -1.657  1.00  0.00     0.000 A 
ATOM     11  C   UNL     1       6.976  -0.540  -2.094  1.00  0.00     0.000 A 
ATOM     12  C   UNL     1       8.310  -0.410  -2.404  1.00  0.00     0.000 A 
ENDBRANCH   6   7
ENDBRANCH   1   6
TORSDOF 4
ENDMDL
MODEL 4
REMARK VINA RESULT:      -6.6      1.938      2.264
REMARK SMILES O=C(O)CCc1ccccc1
REMARK SMILES IDX 4 1 2 2 1 3 3 4 5 6 6 7 7 8 11 9 8 10 10 11 9 12
REMARK H PARENT 3 5
REMARK Flexibility Score: inf
ROOT
ATOM      1  C   UNL     1       8.280   0.191  -2.189  1.00  0.00     0.127 C 
ENDROOT
BRANCH   1   2
ATOM      2  C   UNL     1       9.399   0.356  -1.244  1.00  0.00     0.303 C 
ATOM      3  O   UNL     1       9.462  -0.395  -0.233  1.00  0.00    -0.252 OA
BRANCH   2   4
ATOM      4  O   UNL     1      10.400   1.320  -1.432  1.00  0.00    -0.481 OA
ATOM      5  H   UNL     1      10.516   2.039  -0.730  1.00  0.00     0.296 HD
ENDBRANCH   2   4
ENDBRANCH   1   2
BRANCH   1   6
ATOM      6  C   UNL     1       7.130  -0.593  -1.584  1.00  0.00     0.047 C 
BRANCH   6   7
ATOM      7  C   UNL     1       6.353   0.246  -0.635  1.00  0.00    -0.047 A 
ATOM      8  C   UNL     1       6.123  -0.183   0.665  1.00  0.00     0.004 A 
ATOM      9  C   UNL     1       5.818   1.472  -0.985  1.00  0.00     0.004 A 
ATOM     10  C   UNL     1       5.400   0.566   1.564  1.00  0.00     0.000 A 
ATOM     11  C   UNL     1       5.094   2.221  -0.082  1.00  0.00     0.000 A 
ATOM     12  C   UNL     1       4.869   1.788   1.204  1.00  0.00     0.000 A 
ENDBRANCH   6   7
ENDBRANCH   1   6
TORSDOF 4
ENDMDL
MODEL 5
REMARK VINA RESULT:      -6.5      2.021      2.957
REMARK SMILES O=C(O)CCc1ccccc1
REMARK SMILES IDX 4 1 2 2 1 3 3 4 5 6 6 7 7 8 11 9 8 10 10 11 9 12
REMARK H PARENT 3 5
REMARK Flexibility Score: inf
ROOT
ATOM      1  C   UNL     1       8.326  -1.704   0.908  1.00  0.00     0.127 C 
ENDROOT
BRANCH   1   2
ATOM      2  C   UNL     1       8.721  -3.023   0.382  1.00  0.00     0.303 C 
ATOM      3  O   UNL     1       9.420  -3.785   1.103  1.00  0.00    -0.252 OA
BRANCH   2   4
ATOM      4  O   UNL     1       8.344  -3.462  -0.895  1.00  0.00    -0.481 OA
ATOM      5  H   UNL     1       8.333  -4.455  -1.081  1.00  0.00     0.296 HD
ENDBRANCH   2   4
ENDBRANCH   1   2
BRANCH   1   6
ATOM      6  C   UNL     1       6.852  -1.648   1.269  1.00  0.00     0.047 C 
BRANCH   6   7
ATOM      7  C   UNL     1       6.244  -0.365   0.829  1.00  0.00    -0.047 A 
ATOM      8  C   UNL     1       6.456   0.114  -0.456  1.00  0.00     0.004 A 
ATOM      9  C   UNL     1       5.458   0.414   1.658  1.00  0.00     0.004 A 
ATOM     10  C   UNL     1       5.916   1.303  -0.890  1.00  0.00     0.000 A 
ATOM     11  C   UNL     1       4.918   1.604   1.221  1.00  0.00     0.000 A 
ATOM     12  C   UNL     1       5.133   2.074  -0.055  1.00  0.00     0.000 A 
ENDBRANCH   6   7
ENDBRANCH   1   6
TORSDOF 4
ENDMDL
