@<TRIPOS>MOLECULE
/home/cewinharhar/GITHUB/reincatalyze/data/processed/docking_pred/2023-Apr-25-2248_maxeplen10_maxtrainstep1000_exh16_gamma099_lrac3e-4_lrcr1e-3/d7d9c72b52c2e0a01b4806f6bcc2a503b8c9528b_ligand_2.pdbqt
 12 12 0 0 0
SMALL
GASTEIGER

@<TRIPOS>ATOM
      1  C          8.3940   -0.6560   -2.1220 C.3     1  UNL1        0.1270
      2  C          8.4000   -1.9130   -2.8910 C.2     1  UNL1        0.3030
      3  O          7.3010   -2.4220   -3.2410 O.2     1  UNL1       -0.2520
      4  O          9.5900   -2.5640   -3.2490 O.3     1  UNL1       -0.4810
      5  H          9.6290   -3.5720   -3.1800 H       1  UNL1        0.2960
      6  C          7.0340    0.0180   -2.1360 C.3     1  UNL1        0.0470
      7  C          6.4760    0.1220   -0.7620 C.2     1  UNL1       -0.0470
      8  C          6.6180   -0.9230    0.1400 C.2     1  UNL1        0.0040
      9  C          5.7890    1.2360   -0.3150 C.2     1  UNL1        0.0040
     10  C          6.1040   -0.8620    1.4150 C.2     1  UNL1        0.0000
     11  C          5.2760    1.2950    0.9620 C.2     1  UNL1        0.0000
     12  C          5.4190    0.2540    1.8510 C.2     1  UNL1        0.0000
@<TRIPOS>BOND
     1     4     5    1
     2     4     2    1
     3     3     2    2
     4     2     1    1
     5     6     1    1
     6     6     7    1
     7     7     9    2
     8     7     8    1
     9     9    11    1
    10     8    10    2
    11    11    12    2
    12    10    12    1
