@<TRIPOS>MOLECULE
/home/cewinharhar/GITHUB/reincatalyze/data/processed/docking_pred/2023-Apr-25-2248_maxeplen10_maxtrainstep1000_exh16_gamma099_lrac3e-4_lrcr1e-3/d7d9c72b52c2e0a01b4806f6bcc2a503b8c9528b_ligand_2.pdbqt
 12 12 0 0 0
SMALL
GASTEIGER

@<TRIPOS>ATOM
      1  C          8.3800   -0.6290   -2.1570 C.3     1  UNL1        0.1270
      2  C          8.3900   -1.9010   -2.9010 C.2     1  UNL1        0.3030
      3  O          7.2920   -2.4160   -3.2470 O.2     1  UNL1       -0.2520
      4  O          9.5800   -2.5610   -3.2390 O.3     1  UNL1       -0.4810
      5  H          9.5290   -3.5210   -3.5520 H       1  UNL1        0.2960
      6  C          7.0050    0.0140   -2.1380 C.3     1  UNL1        0.0470
      7  C          6.4660    0.0760   -0.7540 C.2     1  UNL1       -0.0470
      8  C          5.7980    1.2070   -0.3050 C.2     1  UNL1        0.0040
      9  C          6.6040   -0.9600    0.1510 C.2     1  UNL1        0.0040
     10  C          5.2970    1.3000    0.9730 C.2     1  UNL1        0.0000
     11  C          6.1020   -0.8660    1.4310 C.2     1  UNL1        0.0000
     12  C          5.4410    0.2600    1.8690 C.2     1  UNL1        0.0000
@<TRIPOS>BOND
     1     5     4    1
     2     3     2    2
     3     4     2    1
     4     2     1    1
     5     1     6    1
     6     6     7    1
     7     7     8    2
     8     7     9    1
     9     8    10    1
    10     9    11    2
    11    10    12    2
    12    11    12    1
