@<TRIPOS>MOLECULE
/home/cewinharhar/GITHUB/reincatalyze/data/processed/docking_pred/2023-Apr-25-2248_maxeplen10_maxtrainstep1000_exh16_gamma099_lrac3e-4_lrcr1e-3/d7d9c72b52c2e0a01b4806f6bcc2a503b8c9528b_ligand_2.pdbqt
 12 12 0 0 0
SMALL
GASTEIGER

@<TRIPOS>ATOM
      1  C          8.2800    0.1910   -2.1890 C.3     1  UNL1        0.1270
      2  C          9.3990    0.3560   -1.2440 C.2     1  UNL1        0.3030
      3  O          9.4620   -0.3950   -0.2330 O.2     1  UNL1       -0.2520
      4  O         10.4000    1.3200   -1.4320 O.3     1  UNL1       -0.4810
      5  H         10.5160    2.0390   -0.7300 H       1  UNL1        0.2960
      6  C          7.1300   -0.5930   -1.5840 C.3     1  UNL1        0.0470
      7  C          6.3530    0.2460   -0.6350 C.2     1  UNL1       -0.0470
      8  C          6.1230   -0.1830    0.6650 C.2     1  UNL1        0.0040
      9  C          5.8180    1.4720   -0.9850 C.2     1  UNL1        0.0040
     10  C          5.4000    0.5660    1.5640 C.2     1  UNL1        0.0000
     11  C          5.0940    2.2210   -0.0820 C.2     1  UNL1        0.0000
     12  C          4.8690    1.7880    1.2040 C.2     1  UNL1        0.0000
@<TRIPOS>BOND
     1     1     6    1
     2     1     2    1
     3     6     7    1
     4     4     2    1
     5     4     5    1
     6     2     3    2
     7     9     7    2
     8     9    11    1
     9     7     8    1
    10    11    12    2
    11     8    10    2
    12    12    10    1
