@<TRIPOS>MOLECULE
/home/cewinharhar/GITHUB/reincatalyze/data/processed/docking_pred/2023-Apr-25-2248_maxeplen10_maxtrainstep1000_exh16_gamma099_lrac3e-4_lrcr1e-3/d7d9c72b52c2e0a01b4806f6bcc2a503b8c9528b_ligand_2.pdbqt
 12 12 0 0 0
SMALL
GASTEIGER

@<TRIPOS>ATOM
      1  C          8.3260   -1.7040    0.9080 C.3     1  UNL1        0.1270
      2  C          8.7210   -3.0230    0.3820 C.2     1  UNL1        0.3030
      3  O          9.4200   -3.7850    1.1030 O.2     1  UNL1       -0.2520
      4  O          8.3440   -3.4620   -0.8950 O.3     1  UNL1       -0.4810
      5  H          8.3330   -4.4550   -1.0810 H       1  UNL1        0.2960
      6  C          6.8520   -1.6480    1.2690 C.3     1  UNL1        0.0470
      7  C          6.2440   -0.3650    0.8290 C.2     1  UNL1       -0.0470
      8  C          6.4560    0.1140   -0.4560 C.2     1  UNL1        0.0040
      9  C          5.4580    0.4140    1.6580 C.2     1  UNL1        0.0040
     10  C          5.9160    1.3030   -0.8900 C.2     1  UNL1        0.0000
     11  C          4.9180    1.6040    1.2210 C.2     1  UNL1        0.0000
     12  C          5.1330    2.0740   -0.0550 C.2     1  UNL1        0.0000
@<TRIPOS>BOND
     1     5     4    1
     2     4     2    1
     3    10     8    1
     4    10    12    2
     5     8     7    2
     6    12    11    1
     7     2     1    1
     8     2     3    2
     9     7     6    1
    10     7     9    1
    11     1     6    1
    12    11     9    2
