@<TRIPOS>MOLECULE
/home/cewinharhar/GITHUB/reincatalyze/data/processed/docking_pred/2023-Apr-25-2248_maxeplen10_maxtrainstep1000_exh16_gamma099_lrac3e-4_lrcr1e-3/d7d9c72b52c2e0a01b4806f6bcc2a503b8c9528b_ligand_2.pdbqt
 12 12 0 0 0
SMALL
GASTEIGER

@<TRIPOS>ATOM
      1  C          5.0100    1.8090    0.7400 C.3     1  UNL1        0.1270
      2  C          4.4720    1.1210    1.9280 C.2     1  UNL1        0.3030
      3  O          5.1530    0.2060    2.4660 O.2     1  UNL1       -0.2520
      4  O          3.2280    1.4500    2.4830 O.3     1  UNL1       -0.4810
      5  H          2.7130    0.7320    2.9760 H       1  UNL1        0.2960
      6  C          6.5250    1.8970    0.7650 C.3     1  UNL1        0.0470
      7  C          7.1240    1.0870   -0.3270 C.2     1  UNL1       -0.0470
      8  C          8.4690    1.2120   -0.6450 C.2     1  UNL1        0.0040
      9  C          6.3910    0.1890   -1.0810 C.2     1  UNL1        0.0040
     10  C          9.0510    0.4830   -1.6570 C.2     1  UNL1        0.0000
     11  C          6.9760   -0.5400   -2.0940 C.2     1  UNL1        0.0000
     12  C          8.3100   -0.4100   -2.4040 C.2     1  UNL1        0.0000
@<TRIPOS>BOND
     1    12    11    2
     2    12    10    1
     3    11     9    1
     4    10     8    2
     5     9     7    2
     6     8     7    1
     7     7     6    1
     8     1     6    1
     9     1     2    1
    10     2     3    2
    11     2     4    1
    12     4     5    1
