@<TRIPOS>MOLECULE
/home/cewinharhar/GITHUB/reincatalyze/data/processed/docking_pred/2023-Apr-25-2248_maxeplen10_maxtrainstep1000_exh16_gamma099_lrac3e-4_lrcr1e-3/d98db6e7330c4682e6208573911aa9edae27e8f4_ligand_2.pdbqt
 12 12 0 0 0
SMALL
GASTEIGER

@<TRIPOS>ATOM
      1  C          8.4530   -0.6760   -2.0690 C.3     1  UNL1        0.1270
      2  C          8.4280   -1.9160   -2.8660 C.2     1  UNL1        0.3030
      3  O          7.3150   -2.4040   -3.2030 O.2     1  UNL1       -0.2520
      4  O          9.6010   -2.5720   -3.2660 O.3     1  UNL1       -0.4810
      5  H          9.9690   -3.3070   -2.6770 H       1  UNL1        0.2960
      6  C          7.1280    0.0640   -2.1170 C.3     1  UNL1        0.0470
      7  C          6.5180    0.1510   -0.7640 C.2     1  UNL1       -0.0470
      8  C          5.8150    1.2820   -0.3760 C.2     1  UNL1        0.0040
      9  C          6.6200   -0.8640    0.1700 C.2     1  UNL1        0.0040
     10  C          5.2480    1.3980    0.8720 C.2     1  UNL1        0.0000
     11  C          6.0510   -0.7470    1.4200 C.2     1  UNL1        0.0000
     12  C          5.3570    0.3800    1.7970 C.2     1  UNL1        0.0000
@<TRIPOS>BOND
     1     4     2    1
     2     4     5    1
     3     3     2    2
     4     2     1    1
     5     6     1    1
     6     6     7    1
     7     7     8    2
     8     7     9    1
     9     8    10    1
    10     9    11    2
    11    10    12    2
    12    11    12    1
