@<TRIPOS>MOLECULE
/home/cewinharhar/GITHUB/reincatalyze/data/processed/docking_pred/2023-Apr-25-2248_maxeplen10_maxtrainstep1000_exh16_gamma099_lrac3e-4_lrcr1e-3/d98db6e7330c4682e6208573911aa9edae27e8f4_ligand_2.pdbqt
 12 12 0 0 0
SMALL
GASTEIGER

@<TRIPOS>ATOM
      1  C          4.9960    1.7630    0.6960 C.3     1  UNL1        0.1270
      2  C          4.4850    1.1200    1.9200 C.2     1  UNL1        0.3030
      3  O          5.1890    0.2440    2.4910 O.2     1  UNL1       -0.2520
      4  O          3.2400    1.4510    2.4740 O.3     1  UNL1       -0.4810
      5  H          2.5960    0.7040    2.6960 H       1  UNL1        0.2960
      6  C          6.5070    1.9080    0.7120 C.3     1  UNL1        0.0470
      7  C          7.1320    1.0850   -0.3570 C.2     1  UNL1       -0.0470
      8  C          8.4780    1.2270   -0.6630 C.2     1  UNL1        0.0040
      9  C          6.4240    0.1590   -1.1000 C.2     1  UNL1        0.0040
     10  C          9.0840    0.4890   -1.6530 C.2     1  UNL1        0.0000
     11  C          7.0320   -0.5800   -2.0920 C.2     1  UNL1        0.0000
     12  C          8.3670   -0.4330   -2.3900 C.2     1  UNL1        0.0000
@<TRIPOS>BOND
     1    12    11    2
     2    12    10    1
     3    11     9    1
     4    10     8    2
     5     9     7    2
     6     8     7    1
     7     7     6    1
     8     1     6    1
     9     1     2    1
    10     2     4    1
    11     2     3    2
    12     4     5    1
