MODEL 1
REMARK VINA RESULT:      -7.3      0.000      0.000
REMARK SMILES O=C(O)CCc1ccccc1
REMARK SMILES IDX 4 1 2 2 1 3 3 4 5 6 6 7 7 8 11 9 8 10 10 11 9 12
REMARK H PARENT 3 5
REMARK Flexibility Score: inf
ROOT
ATOM      1  C   UNL     1       8.401  -0.686  -2.077  1.00  0.00     0.127 C 
ENDROOT
BRANCH   1   2
ATOM      2  C   UNL     1       8.398  -1.921  -2.880  1.00  0.00     0.303 C 
ATOM      3  O   UNL     1       7.295  -2.418  -3.235  1.00  0.00    -0.252 OA
BRANCH   2   4
ATOM      4  O   UNL     1       9.583  -2.565  -3.267  1.00  0.00    -0.481 OA
ATOM      5  H   UNL     1       9.560  -3.176  -4.072  1.00  0.00     0.296 HD
ENDBRANCH   2   4
ENDBRANCH   1   2
BRANCH   1   6
ATOM      6  C   UNL     1       7.065   0.034  -2.127  1.00  0.00     0.047 C 
BRANCH   6   7
ATOM      7  C   UNL     1       6.481   0.168  -0.767  1.00  0.00    -0.047 A 
ATOM      8  C   UNL     1       6.604  -0.857   0.160  1.00  0.00     0.004 A 
ATOM      9  C   UNL     1       5.788   1.292  -0.357  1.00  0.00     0.004 A 
ATOM     10  C   UNL     1       6.066  -0.768   1.424  1.00  0.00     0.000 A 
ATOM     11  C   UNL     1       5.249   1.380   0.908  1.00  0.00     0.000 A 
ATOM     12  C   UNL     1       5.374   0.358   1.822  1.00  0.00     0.000 A 
ENDBRANCH   6   7
ENDBRANCH   1   6
TORSDOF 4
ENDMDL
MODEL 2
REMARK VINA RESULT:      -7.3      0.040      1.421
REMARK SMILES O=C(O)CCc1ccccc1
REMARK SMILES IDX 4 1 2 2 1 3 3 4 5 6 6 7 7 8 11 9 8 10 10 11 9 12
REMARK H PARENT 3 5
REMARK Flexibility Score: inf
ROOT
ATOM      1  C   UNL     1       8.453  -0.676  -2.069  1.00  0.00     0.127 C 
ENDROOT
BRANCH   1   2
ATOM      2  C   UNL     1       8.428  -1.916  -2.866  1.00  0.00     0.303 C 
ATOM      3  O   UNL     1       7.315  -2.404  -3.203  1.00  0.00    -0.252 OA
BRANCH   2   4
ATOM      4  O   UNL     1       9.601  -2.572  -3.266  1.00  0.00    -0.481 OA
ATOM      5  H   UNL     1       9.969  -3.307  -2.677  1.00  0.00     0.296 HD
ENDBRANCH   2   4
ENDBRANCH   1   2
BRANCH   1   6
ATOM      6  C   UNL     1       7.128   0.064  -2.117  1.00  0.00     0.047 C 
BRANCH   6   7
ATOM      7  C   UNL     1       6.518   0.151  -0.764  1.00  0.00    -0.047 A 
ATOM      8  C   UNL     1       5.815   1.282  -0.376  1.00  0.00     0.004 A 
ATOM      9  C   UNL     1       6.620  -0.864   0.170  1.00  0.00     0.004 A 
ATOM     10  C   UNL     1       5.248   1.398   0.872  1.00  0.00     0.000 A 
ATOM     11  C   UNL     1       6.051  -0.747   1.420  1.00  0.00     0.000 A 
ATOM     12  C   UNL     1       5.357   0.380   1.797  1.00  0.00     0.000 A 
ENDBRANCH   6   7
ENDBRANCH   1   6
TORSDOF 4
ENDMDL
MODEL 3
REMARK VINA RESULT:      -6.8      3.318      5.171
REMARK SMILES O=C(O)CCc1ccccc1
REMARK SMILES IDX 4 1 2 2 1 3 3 4 5 6 6 7 7 8 11 9 8 10 10 11 9 12
REMARK H PARENT 3 5
REMARK Flexibility Score: inf
ROOT
ATOM      1  C   UNL     1       4.996   1.763   0.696  1.00  0.00     0.127 C 
ENDROOT
BRANCH   1   2
ATOM      2  C   UNL     1       4.485   1.120   1.920  1.00  0.00     0.303 C 
ATOM      3  O   UNL     1       5.189   0.244   2.491  1.00  0.00    -0.252 OA
BRANCH   2   4
ATOM      4  O   UNL     1       3.240   1.451   2.474  1.00  0.00    -0.481 OA
ATOM      5  H   UNL     1       2.596   0.704   2.696  1.00  0.00     0.296 HD
ENDBRANCH   2   4
ENDBRANCH   1   2
BRANCH   1   6
ATOM      6  C   UNL     1       6.507   1.908   0.712  1.00  0.00     0.047 C 
BRANCH   6   7
ATOM      7  C   UNL     1       7.132   1.085  -0.357  1.00  0.00    -0.047 A 
ATOM      8  C   UNL     1       8.478   1.227  -0.663  1.00  0.00     0.004 A 
ATOM      9  C   UNL     1       6.424   0.159  -1.100  1.00  0.00     0.004 A 
ATOM     10  C   UNL     1       9.084   0.489  -1.653  1.00  0.00     0.000 A 
ATOM     11  C   UNL     1       7.032  -0.580  -2.092  1.00  0.00     0.000 A 
ATOM     12  C   UNL     1       8.367  -0.433  -2.390  1.00  0.00     0.000 A 
ENDBRANCH   6   7
ENDBRANCH   1   6
TORSDOF 4
ENDMDL
MODEL 4
REMARK VINA RESULT:      -6.6      1.931      2.242
REMARK SMILES O=C(O)CCc1ccccc1
REMARK SMILES IDX 4 1 2 2 1 3 3 4 5 6 6 7 7 8 11 9 8 10 10 11 9 12
REMARK H PARENT 3 5
REMARK Flexibility Score: inf
ROOT
ATOM      1  C   UNL     1       8.288   0.255  -2.178  1.00  0.00     0.127 C 
ENDROOT
BRANCH   1   2
ATOM      2  C   UNL     1       9.410   0.379  -1.230  1.00  0.00     0.303 C 
ATOM      3  O   UNL     1       9.462  -0.397  -0.238  1.00  0.00    -0.252 OA
BRANCH   2   4
ATOM      4  O   UNL     1      10.425   1.332  -1.395  1.00  0.00    -0.481 OA
ATOM      5  H   UNL     1      10.959   1.614  -0.584  1.00  0.00     0.296 HD
ENDBRANCH   2   4
ENDBRANCH   1   2
BRANCH   1   6
ATOM      6  C   UNL     1       7.136  -0.548  -1.600  1.00  0.00     0.047 C 
BRANCH   6   7
ATOM      7  C   UNL     1       6.357   0.262  -0.628  1.00  0.00    -0.047 A 
ATOM      8  C   UNL     1       6.128  -0.204   0.659  1.00  0.00     0.004 A 
ATOM      9  C   UNL     1       5.818   1.496  -0.944  1.00  0.00     0.004 A 
ATOM     10  C   UNL     1       5.402   0.518   1.579  1.00  0.00     0.000 A 
ATOM     11  C   UNL     1       5.091   2.217  -0.021  1.00  0.00     0.000 A 
ATOM     12  C   UNL     1       4.867   1.748   1.253  1.00  0.00     0.000 A 
ENDBRANCH   6   7
ENDBRANCH   1   6
TORSDOF 4
ENDMDL
MODEL 5
REMARK VINA RESULT:      -6.6      1.902      2.903
REMARK SMILES O=C(O)CCc1ccccc1
REMARK SMILES IDX 4 1 2 2 1 3 3 4 5 6 6 7 7 8 11 9 8 10 10 11 9 12
REMARK H PARENT 3 5
REMARK Flexibility Score: inf
ROOT
ATOM      1  C   UNL     1       8.220  -1.662   1.092  1.00  0.00     0.127 C 
ENDROOT
BRANCH   1   2
ATOM      2  C   UNL     1       8.530  -2.862   0.296  1.00  0.00     0.303 C 
ATOM      3  O   UNL     1       9.191  -3.796   0.827  1.00  0.00    -0.252 OA
BRANCH   2   4
ATOM      4  O   UNL     1       8.115  -3.004  -1.036  1.00  0.00    -0.481 OA
ATOM      5  H   UNL     1       7.172  -3.322  -1.217  1.00  0.00     0.296 HD
ENDBRANCH   2   4
ENDBRANCH   1   2
BRANCH   1   6
ATOM      6  C   UNL     1       6.737  -1.543   1.396  1.00  0.00     0.047 C 
BRANCH   6   7
ATOM      7  C   UNL     1       6.183  -0.274   0.855  1.00  0.00    -0.047 A 
ATOM      8  C   UNL     1       6.435   0.106  -0.456  1.00  0.00     0.004 A 
ATOM      9  C   UNL     1       5.408   0.587   1.610  1.00  0.00     0.004 A 
ATOM     10  C   UNL     1       5.945   1.278  -0.983  1.00  0.00     0.000 A 
ATOM     11  C   UNL     1       4.918   1.761   1.080  1.00  0.00     0.000 A 
ATOM     12  C   UNL     1       5.174   2.132  -0.220  1.00  0.00     0.000 A 
ENDBRANCH   6   7
ENDBRANCH   1   6
TORSDOF 4
ENDMDL
