@<TRIPOS>MOLECULE
/home/cewinharhar/GITHUB/reincatalyze/data/processed/docking_pred/2023-Apr-25-2248_maxeplen10_maxtrainstep1000_exh16_gamma099_lrac3e-4_lrcr1e-3/d98db6e7330c4682e6208573911aa9edae27e8f4_ligand_2.pdbqt
 12 12 0 0 0
SMALL
GASTEIGER

@<TRIPOS>ATOM
      1  C          8.2200   -1.6620    1.0920 C.3     1  UNL1        0.1270
      2  C          8.5300   -2.8620    0.2960 C.2     1  UNL1        0.3030
      3  O          9.1910   -3.7960    0.8270 O.2     1  UNL1       -0.2520
      4  O          8.1150   -3.0040   -1.0360 O.3     1  UNL1       -0.4810
      5  H          7.1720   -3.3220   -1.2170 H       1  UNL1        0.2960
      6  C          6.7370   -1.5430    1.3960 C.3     1  UNL1        0.0470
      7  C          6.1830   -0.2740    0.8550 C.2     1  UNL1       -0.0470
      8  C          6.4350    0.1060   -0.4560 C.2     1  UNL1        0.0040
      9  C          5.4080    0.5870    1.6100 C.2     1  UNL1        0.0040
     10  C          5.9450    1.2780   -0.9830 C.2     1  UNL1        0.0000
     11  C          4.9180    1.7610    1.0800 C.2     1  UNL1        0.0000
     12  C          5.1740    2.1320   -0.2200 C.2     1  UNL1        0.0000
@<TRIPOS>BOND
     1     5     4    1
     2     4     2    1
     3    10     8    1
     4    10    12    2
     5     8     7    2
     6    12    11    1
     7     2     3    2
     8     2     1    1
     9     7     6    1
    10     7     9    1
    11    11     9    2
    12     1     6    1
