@<TRIPOS>MOLECULE
/home/cewinharhar/GITHUB/reincatalyze/data/processed/docking_pred/2023-Apr-25-2248_maxeplen10_maxtrainstep1000_exh16_gamma099_lrac3e-4_lrcr1e-3/d98db6e7330c4682e6208573911aa9edae27e8f4_ligand_2.pdbqt
 12 12 0 0 0
SMALL
GASTEIGER

@<TRIPOS>ATOM
      1  C          8.2880    0.2550   -2.1780 C.3     1  UNL1        0.1270
      2  C          9.4100    0.3790   -1.2300 C.2     1  UNL1        0.3030
      3  O          9.4620   -0.3970   -0.2380 O.2     1  UNL1       -0.2520
      4  O         10.4250    1.3320   -1.3950 O.3     1  UNL1       -0.4810
      5  H         10.9590    1.6140   -0.5840 H       1  UNL1        0.2960
      6  C          7.1360   -0.5480   -1.6000 C.3     1  UNL1        0.0470
      7  C          6.3570    0.2620   -0.6280 C.2     1  UNL1       -0.0470
      8  C          6.1280   -0.2040    0.6590 C.2     1  UNL1        0.0040
      9  C          5.8180    1.4960   -0.9440 C.2     1  UNL1        0.0040
     10  C          5.4020    0.5180    1.5790 C.2     1  UNL1        0.0000
     11  C          5.0910    2.2170   -0.0210 C.2     1  UNL1        0.0000
     12  C          4.8670    1.7480    1.2530 C.2     1  UNL1        0.0000
@<TRIPOS>BOND
     1     1     6    1
     2     1     2    1
     3     6     7    1
     4     4     2    1
     5     4     5    1
     6     2     3    2
     7     9     7    2
     8     9    11    1
     9     7     8    1
    10    11    12    2
    11     8    10    2
    12    12    10    1
