@<TRIPOS>MOLECULE
/home/cewinharhar/GITHUB/reincatalyze/data/processed/docking_pred/2023-Apr-25-2248_maxeplen10_maxtrainstep1000_exh16_gamma099_lrac3e-4_lrcr1e-3/d98db6e7330c4682e6208573911aa9edae27e8f4_ligand_2.pdbqt
 12 12 0 0 0
SMALL
GASTEIGER

@<TRIPOS>ATOM
      1  C          8.4010   -0.6860   -2.0770 C.3     1  UNL1        0.1270
      2  C          8.3980   -1.9210   -2.8800 C.2     1  UNL1        0.3030
      3  O          7.2950   -2.4180   -3.2350 O.2     1  UNL1       -0.2520
      4  O          9.5830   -2.5650   -3.2670 O.3     1  UNL1       -0.4810
      5  H          9.5600   -3.1760   -4.0720 H       1  UNL1        0.2960
      6  C          7.0650    0.0340   -2.1270 C.3     1  UNL1        0.0470
      7  C          6.4810    0.1680   -0.7670 C.2     1  UNL1       -0.0470
      8  C          6.6040   -0.8570    0.1600 C.2     1  UNL1        0.0040
      9  C          5.7880    1.2920   -0.3570 C.2     1  UNL1        0.0040
     10  C          6.0660   -0.7680    1.4240 C.2     1  UNL1        0.0000
     11  C          5.2490    1.3800    0.9080 C.2     1  UNL1        0.0000
     12  C          5.3740    0.3580    1.8220 C.2     1  UNL1        0.0000
@<TRIPOS>BOND
     1     5     4    1
     2     4     2    1
     3     3     2    2
     4     2     1    1
     5     6     1    1
     6     6     7    1
     7     7     9    2
     8     7     8    1
     9     9    11    1
    10     8    10    2
    11    11    12    2
    12    10    12    1
