@<TRIPOS>MOLECULE
/home/cewinharhar/GITHUB/reincatalyze/data/processed/docking_pred/2023-Apr-25-2248_maxeplen10_maxtrainstep1000_exh16_gamma099_lrac3e-4_lrcr1e-3/da55d276f49f8aea3f2b333b6115ea57fe53d1b0_ligand_2.pdbqt
 12 12 0 0 0
SMALL
GASTEIGER

@<TRIPOS>ATOM
      1  C          5.9860   -0.8690    1.8300 C.3     1  UNL1        0.1270
      2  C          5.3920    0.4590    2.0650 C.2     1  UNL1        0.3030
      3  O          4.1980    0.5340    2.4640 O.2     1  UNL1       -0.2520
      4  O          6.1100    1.6460    1.8610 O.3     1  UNL1       -0.4810
      5  H          7.1200    1.6010    1.8340 H       1  UNL1        0.2960
      6  C          7.4760   -0.7900    1.5510 C.3     1  UNL1        0.0470
      7  C          7.7390   -0.6660    0.0930 C.2     1  UNL1       -0.0470
      8  C          6.8670   -1.2190   -0.8330 C.2     1  UNL1        0.0040
      9  C          8.8490   -0.0160   -0.4140 C.2     1  UNL1        0.0040
     10  C          7.0880   -1.1310   -2.1880 C.2     1  UNL1        0.0000
     11  C          9.0690    0.0720   -1.7720 C.2     1  UNL1        0.0000
     12  C          8.2000   -0.4810   -2.6850 C.2     1  UNL1        0.0000
@<TRIPOS>BOND
     1    12    10    2
     2    12    11    1
     3    10     8    1
     4    11     9    2
     5     8     7    2
     6     9     7    1
     7     7     6    1
     8     6     1    1
     9     1     2    1
    10     5     4    1
    11     4     2    1
    12     2     3    2
