@<TRIPOS>MOLECULE
/home/cewinharhar/GITHUB/reincatalyze/data/processed/docking_pred/2023-Apr-25-2248_maxeplen10_maxtrainstep1000_exh16_gamma099_lrac3e-4_lrcr1e-3/da55d276f49f8aea3f2b333b6115ea57fe53d1b0_ligand_2.pdbqt
 12 12 0 0 0
SMALL
GASTEIGER

@<TRIPOS>ATOM
      1  C          8.2710   -0.7160   -2.1640 C.3     1  UNL1        0.1270
      2  C          8.4050   -1.9630   -2.9390 C.2     1  UNL1        0.3030
      3  O          9.5460   -2.4820   -3.0710 O.2     1  UNL1       -0.2520
      4  O          7.3040   -2.5950   -3.5340 O.3     1  UNL1       -0.4810
      5  H          7.4700   -3.3920   -4.1330 H       1  UNL1        0.2960
      6  C          6.8330   -0.4400   -1.7650 C.3     1  UNL1        0.0470
      7  C          6.6370   -0.6410   -0.3050 C.2     1  UNL1       -0.0470
      8  C          5.8230    0.2140    0.4230 C.2     1  UNL1        0.0040
      9  C          7.2500   -1.6620    0.3980 C.2     1  UNL1        0.0040
     10  C          5.6290    0.0610    1.7770 C.2     1  UNL1        0.0000
     11  C          7.0550   -1.8130    1.7540 C.2     1  UNL1        0.0000
     12  C          6.2460   -0.9610    2.4710 C.2     1  UNL1        0.0000
@<TRIPOS>BOND
     1     5     4    1
     2     4     2    1
     3     3     2    2
     4     2     1    1
     5     1     6    1
     6     6     7    1
     7     7     9    2
     8     7     8    1
     9     9    11    1
    10     8    10    2
    11    11    12    2
    12    10    12    1
