@<TRIPOS>MOLECULE
/home/cewinharhar/GITHUB/reincatalyze/data/processed/docking_pred/2023-Apr-25-2248_maxeplen10_maxtrainstep1000_exh16_gamma099_lrac3e-4_lrcr1e-3/da55d276f49f8aea3f2b333b6115ea57fe53d1b0_ligand_2.pdbqt
 12 12 0 0 0
SMALL
GASTEIGER

@<TRIPOS>ATOM
      1  C          8.2480   -1.2500   -2.0300 C.3     1  UNL1        0.1270
      2  C          8.9420    0.0500   -2.0370 C.2     1  UNL1        0.3030
      3  O          8.4400    1.0080   -2.6860 O.2     1  UNL1       -0.2520
      4  O         10.1430    0.2610   -1.3440 O.3     1  UNL1       -0.4810
      5  H         10.9140   -0.3700   -1.5120 H       1  UNL1        0.2960
      6  C          6.7740   -1.1120   -1.6960 C.3     1  UNL1        0.0470
      7  C          6.5720   -0.9520   -0.2320 C.2     1  UNL1       -0.0470
      8  C          5.8520    0.1220    0.2700 C.2     1  UNL1        0.0040
      9  C          7.0870   -1.8390    0.6960 C.2     1  UNL1        0.0040
     10  C          5.6570    0.3040    1.6200 C.2     1  UNL1        0.0000
     11  C          6.8910   -1.6560    2.0470 C.2     1  UNL1        0.0000
     12  C          6.1760   -0.5870    2.5380 C.2     1  UNL1        0.0000
@<TRIPOS>BOND
     1     3     2    2
     2     2     1    1
     3     2     4    1
     4     1     6    1
     5     6     7    1
     6     5     4    1
     7     7     8    2
     8     7     9    1
     9     8    10    1
    10     9    11    2
    11    10    12    2
    12    11    12    1
