@<TRIPOS>MOLECULE
/home/cewinharhar/GITHUB/reincatalyze/data/processed/docking_pred/2023-Apr-25-2248_maxeplen10_maxtrainstep1000_exh16_gamma099_lrac3e-4_lrcr1e-3/da55d276f49f8aea3f2b333b6115ea57fe53d1b0_ligand_2.pdbqt
 12 12 0 0 0
SMALL
GASTEIGER

@<TRIPOS>ATOM
      1  C          5.8600   -0.8540    1.7620 C.3     1  UNL1        0.1270
      2  C          5.3010    0.4800    2.0430 C.2     1  UNL1        0.3030
      3  O          4.1270    0.5700    2.4940 O.2     1  UNL1       -0.2520
      4  O          6.0320    1.6570    1.8280 O.3     1  UNL1       -0.4810
      5  H          6.1960    2.2740    2.6120 H       1  UNL1        0.2960
      6  C          7.3590   -0.8110    1.5260 C.3     1  UNL1        0.0470
      7  C          7.6670   -0.7040    0.0760 C.2     1  UNL1       -0.0470
      8  C          8.8090   -0.0470   -0.3590 C.2     1  UNL1        0.0040
      9  C          6.8470   -1.2330   -0.9040 C.2     1  UNL1        0.0040
     10  C          9.1160    0.0780   -1.6940 C.2     1  UNL1        0.0000
     11  C          7.1570   -1.1070   -2.2410 C.2     1  UNL1        0.0000
     12  C          8.2910   -0.4520   -2.6650 C.2     1  UNL1        0.0000
@<TRIPOS>BOND
     1    12    11    2
     2    12    10    1
     3    11     9    1
     4    10     8    2
     5     9     7    2
     6     8     7    1
     7     7     6    1
     8     6     1    1
     9     1     2    1
    10     4     2    1
    11     4     5    1
    12     2     3    2
