@<TRIPOS>MOLECULE
/home/cewinharhar/GITHUB/reincatalyze/data/processed/docking_pred/2023-Apr-25-2248_maxeplen10_maxtrainstep1000_exh16_gamma099_lrac3e-4_lrcr1e-3/da55d276f49f8aea3f2b333b6115ea57fe53d1b0_ligand_2.pdbqt
 12 12 0 0 0
SMALL
GASTEIGER

@<TRIPOS>ATOM
      1  C          8.3280   -0.7980   -2.0840 C.3     1  UNL1        0.1270
      2  C          8.4390   -1.9950   -2.9370 C.2     1  UNL1        0.3030
      3  O          9.5780   -2.4940   -3.1460 O.2     1  UNL1       -0.2520
      4  O          7.3190   -2.6020   -3.5240 O.3     1  UNL1       -0.4810
      5  H          7.4540   -3.1640   -4.3530 H       1  UNL1        0.2960
      6  C          6.8860   -0.4710   -1.7390 C.3     1  UNL1        0.0470
      7  C          6.6440   -0.6070   -0.2790 C.2     1  UNL1       -0.0470
      8  C          7.2320   -1.6350    0.4430 C.2     1  UNL1        0.0040
      9  C          5.8280    0.2580    0.4270 C.2     1  UNL1        0.0040
     10  C          7.0190   -1.7930    1.7940 C.2     1  UNL1        0.0000
     11  C          5.6160    0.0980    1.7800 C.2     1  UNL1        0.0000
     12  C          6.2030   -0.9250    2.4900 C.2     1  UNL1        0.0000
@<TRIPOS>BOND
     1     5     4    1
     2     4     2    1
     3     3     2    2
     4     2     1    1
     5     1     6    1
     6     6     7    1
     7     7     9    2
     8     7     8    1
     9     9    11    1
    10     8    10    2
    11    11    12    2
    12    10    12    1
