@<TRIPOS>MOLECULE
/home/cewinharhar/GITHUB/reincatalyze/data/processed/docking_pred/2023-Apr-25-2248_maxeplen10_maxtrainstep1000_exh16_gamma099_lrac3e-4_lrcr1e-3/db02e8dbba2ca978bde564db4603195d7659b46f_ligand_2.pdbqt
 12 12 0 0 0
SMALL
GASTEIGER

@<TRIPOS>ATOM
      1  C          4.9970    1.7940    0.6990 C.3     1  UNL1        0.1270
      2  C          4.4810    1.1300    1.9090 C.2     1  UNL1        0.3030
      3  O          5.1780    0.2350    2.4600 O.2     1  UNL1       -0.2520
      4  O          3.2400    1.4600    2.4720 O.3     1  UNL1       -0.4810
      5  H          2.4280    0.9220    2.2010 H       1  UNL1        0.2960
      6  C          6.5090    1.9300    0.7190 C.3     1  UNL1        0.0470
      7  C          7.1330    1.1040   -0.3480 C.2     1  UNL1       -0.0470
      8  C          8.4860    1.2200   -0.6330 C.2     1  UNL1        0.0040
      9  C          6.4150    0.2000   -1.1090 C.2     1  UNL1        0.0040
     10  C          9.0900    0.4770   -1.6210 C.2     1  UNL1        0.0000
     11  C          7.0220   -0.5440   -2.0990 C.2     1  UNL1        0.0000
     12  C          8.3650   -0.4220   -2.3760 C.2     1  UNL1        0.0000
@<TRIPOS>BOND
     1    12    11    2
     2    12    10    1
     3    11     9    1
     4    10     8    2
     5     9     7    2
     6     8     7    1
     7     7     6    1
     8     1     6    1
     9     1     2    1
    10     2     3    2
    11     2     4    1
    12     5     4    1
