@<TRIPOS>MOLECULE
/home/cewinharhar/GITHUB/reincatalyze/data/processed/docking_pred/2023-Apr-25-2248_maxeplen10_maxtrainstep1000_exh16_gamma099_lrac3e-4_lrcr1e-3/db02e8dbba2ca978bde564db4603195d7659b46f_ligand_2.pdbqt
 12 12 0 0 0
SMALL
GASTEIGER

@<TRIPOS>ATOM
      1  C          7.9620   -2.3180    0.7100 C.3     1  UNL1        0.1270
      2  C          8.7890   -3.4640    0.2920 C.2     1  UNL1        0.3030
      3  O          9.6590   -3.9130    1.0870 O.2     1  UNL1       -0.2520
      4  O          8.6410   -4.0750   -0.9610 O.3     1  UNL1       -0.4810
      5  H          8.0320   -4.8780   -1.0390 H       1  UNL1        0.2960
      6  C          7.4800   -1.4960   -0.4720 C.3     1  UNL1        0.0470
      7  C          6.6240   -0.3680   -0.0230 C.2     1  UNL1       -0.0470
      8  C          6.0970   -0.3460    1.2610 C.2     1  UNL1        0.0040
      9  C          6.3000    0.6980   -0.8420 C.2     1  UNL1        0.0040
     10  C          5.2930    0.6790    1.7030 C.2     1  UNL1        0.0000
     11  C          5.4940    1.7240   -0.3970 C.2     1  UNL1        0.0000
     12  C          4.9740    1.7380    0.8770 C.2     1  UNL1        0.0000
@<TRIPOS>BOND
     1     5     4    1
     2     4     2    1
     3     9    11    1
     4     9     7    2
     5     6     7    1
     6     6     1    1
     7    11    12    2
     8     7     8    1
     9     2     1    1
    10     2     3    2
    11    12    10    1
    12     8    10    2
