@<TRIPOS>MOLECULE
/home/cewinharhar/GITHUB/reincatalyze/data/processed/docking_pred/2023-Apr-25-2248_maxeplen10_maxtrainstep1000_exh16_gamma099_lrac3e-4_lrcr1e-3/db02e8dbba2ca978bde564db4603195d7659b46f_ligand_2.pdbqt
 12 12 0 0 0
SMALL
GASTEIGER

@<TRIPOS>ATOM
      1  C          8.4030   -0.6490   -2.1280 C.3     1  UNL1        0.1270
      2  C          8.4320   -1.9080   -2.8920 C.2     1  UNL1        0.3030
      3  O          9.5350   -2.4940   -3.0660 O.2     1  UNL1       -0.2520
      4  O          7.2720   -2.4810   -3.4340 O.3     1  UNL1       -0.4810
      5  H          6.6440   -1.8920   -3.9640 H       1  UNL1        0.2960
      6  C          7.0280   -0.0050   -2.1340 C.3     1  UNL1        0.0470
      7  C          6.4840    0.1020   -0.7560 C.2     1  UNL1       -0.0470
      8  C          6.6020   -0.9540    0.1360 C.2     1  UNL1        0.0040
      9  C          5.8340    1.2320   -0.2940 C.2     1  UNL1        0.0040
     10  C          6.1000   -0.8900    1.4160 C.2     1  UNL1        0.0000
     11  C          5.3310    1.2950    0.9880 C.2     1  UNL1        0.0000
     12  C          5.4510    0.2420    1.8670 C.2     1  UNL1        0.0000
@<TRIPOS>BOND
     1     5     4    1
     2     4     2    1
     3     3     2    2
     4     2     1    1
     5     6     1    1
     6     6     7    1
     7     7     9    2
     8     7     8    1
     9     9    11    1
    10     8    10    2
    11    11    12    2
    12    10    12    1
