@<TRIPOS>MOLECULE
/home/cewinharhar/GITHUB/reincatalyze/data/processed/docking_pred/2023-Apr-25-2248_maxeplen10_maxtrainstep1000_exh16_gamma099_lrac3e-4_lrcr1e-3/db02e8dbba2ca978bde564db4603195d7659b46f_ligand_2.pdbqt
 12 12 0 0 0
SMALL
GASTEIGER

@<TRIPOS>ATOM
      1  C          8.4140   -0.5750   -2.1940 C.3     1  UNL1        0.1270
      2  C          8.4620   -1.8610   -2.9110 C.2     1  UNL1        0.3030
      3  O          9.5760   -2.4300   -3.0730 O.2     1  UNL1       -0.2520
      4  O          7.3100   -2.4770   -3.4210 O.3     1  UNL1       -0.4810
      5  H          6.4220   -2.0060   -3.3120 H       1  UNL1        0.2960
      6  C          7.0160    0.0160   -2.1690 C.3     1  UNL1        0.0470
      7  C          6.4870    0.0740   -0.7810 C.2     1  UNL1       -0.0470
      8  C          5.8430    1.2120   -0.3160 C.2     1  UNL1        0.0040
      9  C          6.6110   -0.9740    0.1110 C.2     1  UNL1        0.0040
     10  C          5.3520    1.3010    0.9660 C.2     1  UNL1        0.0000
     11  C          6.1190   -0.8840    1.3960 C.2     1  UNL1        0.0000
     12  C          5.4830    0.2490    1.8500 C.2     1  UNL1        0.0000
@<TRIPOS>BOND
     1     4     5    1
     2     4     2    1
     3     3     2    2
     4     2     1    1
     5     1     6    1
     6     6     7    1
     7     7     8    2
     8     7     9    1
     9     8    10    1
    10     9    11    2
    11    10    12    2
    12    11    12    1
