MODEL 1
REMARK VINA RESULT:      -7.3      0.000      0.000
REMARK SMILES O=C(O)CCc1ccccc1
REMARK SMILES IDX 4 1 2 2 1 3 3 4 5 6 6 7 7 8 11 9 8 10 10 11 9 12
REMARK H PARENT 3 5
REMARK Flexibility Score: inf
ROOT
ATOM      1  C   UNL     1       8.403  -0.649  -2.128  1.00  0.00     0.127 C 
ENDROOT
BRANCH   1   2
ATOM      2  C   UNL     1       8.432  -1.908  -2.892  1.00  0.00     0.303 C 
ATOM      3  O   UNL     1       9.535  -2.494  -3.066  1.00  0.00    -0.252 OA
BRANCH   2   4
ATOM      4  O   UNL     1       7.272  -2.481  -3.434  1.00  0.00    -0.481 OA
ATOM      5  H   UNL     1       6.644  -1.892  -3.964  1.00  0.00     0.296 HD
ENDBRANCH   2   4
ENDBRANCH   1   2
BRANCH   1   6
ATOM      6  C   UNL     1       7.028  -0.005  -2.134  1.00  0.00     0.047 C 
BRANCH   6   7
ATOM      7  C   UNL     1       6.484   0.102  -0.756  1.00  0.00    -0.047 A 
ATOM      8  C   UNL     1       6.602  -0.954   0.136  1.00  0.00     0.004 A 
ATOM      9  C   UNL     1       5.834   1.232  -0.294  1.00  0.00     0.004 A 
ATOM     10  C   UNL     1       6.100  -0.890   1.416  1.00  0.00     0.000 A 
ATOM     11  C   UNL     1       5.331   1.295   0.988  1.00  0.00     0.000 A 
ATOM     12  C   UNL     1       5.451   0.242   1.867  1.00  0.00     0.000 A 
ENDBRANCH   6   7
ENDBRANCH   1   6
TORSDOF 4
ENDMDL
MODEL 2
REMARK VINA RESULT:      -7.3      0.052      1.422
REMARK SMILES O=C(O)CCc1ccccc1
REMARK SMILES IDX 4 1 2 2 1 3 3 4 5 6 6 7 7 8 11 9 8 10 10 11 9 12
REMARK H PARENT 3 5
REMARK Flexibility Score: inf
ROOT
ATOM      1  C   UNL     1       8.414  -0.575  -2.194  1.00  0.00     0.127 C 
ENDROOT
BRANCH   1   2
ATOM      2  C   UNL     1       8.462  -1.861  -2.911  1.00  0.00     0.303 C 
ATOM      3  O   UNL     1       9.576  -2.430  -3.073  1.00  0.00    -0.252 OA
BRANCH   2   4
ATOM      4  O   UNL     1       7.310  -2.477  -3.421  1.00  0.00    -0.481 OA
ATOM      5  H   UNL     1       6.422  -2.006  -3.312  1.00  0.00     0.296 HD
ENDBRANCH   2   4
ENDBRANCH   1   2
BRANCH   1   6
ATOM      6  C   UNL     1       7.016   0.016  -2.169  1.00  0.00     0.047 C 
BRANCH   6   7
ATOM      7  C   UNL     1       6.487   0.074  -0.781  1.00  0.00    -0.047 A 
ATOM      8  C   UNL     1       5.843   1.212  -0.316  1.00  0.00     0.004 A 
ATOM      9  C   UNL     1       6.611  -0.974   0.111  1.00  0.00     0.004 A 
ATOM     10  C   UNL     1       5.352   1.301   0.966  1.00  0.00     0.000 A 
ATOM     11  C   UNL     1       6.119  -0.884   1.396  1.00  0.00     0.000 A 
ATOM     12  C   UNL     1       5.483   0.249   1.850  1.00  0.00     0.000 A 
ENDBRANCH   6   7
ENDBRANCH   1   6
TORSDOF 4
ENDMDL
MODEL 3
REMARK VINA RESULT:      -6.8      3.393      5.070
REMARK SMILES O=C(O)CCc1ccccc1
REMARK SMILES IDX 4 1 2 2 1 3 3 4 5 6 6 7 7 8 11 9 8 10 10 11 9 12
REMARK H PARENT 3 5
REMARK Flexibility Score: inf
ROOT
ATOM      1  C   UNL     1       4.998   1.770   0.708  1.00  0.00     0.127 C 
ENDROOT
BRANCH   1   2
ATOM      2  C   UNL     1       4.467   1.113   1.915  1.00  0.00     0.303 C 
ATOM      3  O   UNL     1       5.146   0.206   2.467  1.00  0.00    -0.252 OA
BRANCH   2   4
ATOM      4  O   UNL     1       3.230   1.464   2.475  1.00  0.00    -0.481 OA
ATOM      5  H   UNL     1       2.981   1.081   3.376  1.00  0.00     0.296 HD
ENDBRANCH   2   4
ENDBRANCH   1   2
BRANCH   1   6
ATOM      6  C   UNL     1       6.509   1.912   0.749  1.00  0.00     0.047 C 
BRANCH   6   7
ATOM      7  C   UNL     1       7.148   1.120  -0.334  1.00  0.00    -0.047 A 
ATOM      8  C   UNL     1       6.408   0.215  -1.080  1.00  0.00     0.004 A 
ATOM      9  C   UNL     1       8.491   1.228  -0.647  1.00  0.00     0.004 A 
ATOM     10  C   UNL     1       6.972  -0.541  -2.082  1.00  0.00     0.000 A 
ATOM     11  C   UNL     1       9.055   0.470  -1.651  1.00  0.00     0.000 A 
ATOM     12  C   UNL     1       8.313  -0.427  -2.386  1.00  0.00     0.000 A 
ENDBRANCH   6   7
ENDBRANCH   1   6
TORSDOF 4
ENDMDL
MODEL 4
REMARK VINA RESULT:      -6.8      3.391      5.086
REMARK SMILES O=C(O)CCc1ccccc1
REMARK SMILES IDX 4 1 2 2 1 3 3 4 5 6 6 7 7 8 11 9 8 10 10 11 9 12
REMARK H PARENT 3 5
REMARK Flexibility Score: inf
ROOT
ATOM      1  C   UNL     1       4.997   1.794   0.699  1.00  0.00     0.127 C 
ENDROOT
BRANCH   1   2
ATOM      2  C   UNL     1       4.481   1.130   1.909  1.00  0.00     0.303 C 
ATOM      3  O   UNL     1       5.178   0.235   2.460  1.00  0.00    -0.252 OA
BRANCH   2   4
ATOM      4  O   UNL     1       3.240   1.460   2.472  1.00  0.00    -0.481 OA
ATOM      5  H   UNL     1       2.428   0.922   2.201  1.00  0.00     0.296 HD
ENDBRANCH   2   4
ENDBRANCH   1   2
BRANCH   1   6
ATOM      6  C   UNL     1       6.509   1.930   0.719  1.00  0.00     0.047 C 
BRANCH   6   7
ATOM      7  C   UNL     1       7.133   1.104  -0.348  1.00  0.00    -0.047 A 
ATOM      8  C   UNL     1       8.486   1.220  -0.633  1.00  0.00     0.004 A 
ATOM      9  C   UNL     1       6.415   0.200  -1.109  1.00  0.00     0.004 A 
ATOM     10  C   UNL     1       9.090   0.477  -1.621  1.00  0.00     0.000 A 
ATOM     11  C   UNL     1       7.022  -0.544  -2.099  1.00  0.00     0.000 A 
ATOM     12  C   UNL     1       8.365  -0.422  -2.376  1.00  0.00     0.000 A 
ENDBRANCH   6   7
ENDBRANCH   1   6
TORSDOF 4
ENDMDL
MODEL 5
REMARK VINA RESULT:      -6.5      2.036      2.540
REMARK SMILES O=C(O)CCc1ccccc1
REMARK SMILES IDX 4 1 2 2 1 3 3 4 5 6 6 7 7 8 11 9 8 10 10 11 9 12
REMARK H PARENT 3 5
REMARK Flexibility Score: inf
ROOT
ATOM      1  C   UNL     1       7.962  -2.318   0.710  1.00  0.00     0.127 C 
ENDROOT
BRANCH   1   2
ATOM      2  C   UNL     1       8.789  -3.464   0.292  1.00  0.00     0.303 C 
ATOM      3  O   UNL     1       9.659  -3.913   1.087  1.00  0.00    -0.252 OA
BRANCH   2   4
ATOM      4  O   UNL     1       8.641  -4.075  -0.961  1.00  0.00    -0.481 OA
ATOM      5  H   UNL     1       8.032  -4.878  -1.039  1.00  0.00     0.296 HD
ENDBRANCH   2   4
ENDBRANCH   1   2
BRANCH   1   6
ATOM      6  C   UNL     1       7.480  -1.496  -0.472  1.00  0.00     0.047 C 
BRANCH   6   7
ATOM      7  C   UNL     1       6.624  -0.368  -0.023  1.00  0.00    -0.047 A 
ATOM      8  C   UNL     1       6.097  -0.346   1.261  1.00  0.00     0.004 A 
ATOM      9  C   UNL     1       6.300   0.698  -0.842  1.00  0.00     0.004 A 
ATOM     10  C   UNL     1       5.293   0.679   1.703  1.00  0.00     0.000 A 
ATOM     11  C   UNL     1       5.494   1.724  -0.397  1.00  0.00     0.000 A 
ATOM     12  C   UNL     1       4.974   1.738   0.877  1.00  0.00     0.000 A 
ENDBRANCH   6   7
ENDBRANCH   1   6
TORSDOF 4
ENDMDL
