@<TRIPOS>MOLECULE
/home/cewinharhar/GITHUB/reincatalyze/data/processed/docking_pred/2023-Apr-25-2248_maxeplen10_maxtrainstep1000_exh16_gamma099_lrac3e-4_lrcr1e-3/db57195a81496af8cffcd6b4d9524a1fe0637e4f_ligand_2.pdbqt
 12 12 0 0 0
SMALL
GASTEIGER

@<TRIPOS>ATOM
      1  C          8.3010   -0.8930   -1.9050 C.3     1  UNL1        0.1270
      2  C          8.4010   -2.0050   -2.8660 C.2     1  UNL1        0.3030
      3  O          9.5340   -2.5000   -3.1130 O.2     1  UNL1       -0.2520
      4  O          7.2780   -2.5350   -3.5160 O.3     1  UNL1       -0.4810
      5  H          6.7630   -3.2790   -3.0640 H       1  UNL1        0.2960
      6  C          7.6870   -1.3280   -0.5860 C.3     1  UNL1        0.0470
      7  C          6.7560   -0.2930   -0.0640 C.2     1  UNL1       -0.0470
      8  C          6.1990   -0.4150    1.2000 C.2     1  UNL1        0.0040
      9  C          6.3910    0.8220   -0.7960 C.2     1  UNL1        0.0040
     10  C          5.3260    0.5200    1.7080 C.2     1  UNL1        0.0000
     11  C          5.5170    1.7580   -0.2860 C.2     1  UNL1        0.0000
     12  C          4.9670    1.6290    0.9690 C.2     1  UNL1        0.0000
@<TRIPOS>BOND
     1     4     5    1
     2     4     2    1
     3     3     2    2
     4     2     1    1
     5     1     6    1
     6     9    11    1
     7     9     7    2
     8     6     7    1
     9    11    12    2
    10     7     8    1
    11    12    10    1
    12     8    10    2
