@<TRIPOS>MOLECULE
/home/cewinharhar/GITHUB/reincatalyze/data/processed/docking_pred/2023-Apr-25-2248_maxeplen10_maxtrainstep1000_exh16_gamma099_lrac3e-4_lrcr1e-3/db57195a81496af8cffcd6b4d9524a1fe0637e4f_ligand_2.pdbqt
 12 12 0 0 0
SMALL
GASTEIGER

@<TRIPOS>ATOM
      1  C          8.3990   -0.6510   -2.1310 C.3     1  UNL1        0.1270
      2  C          8.4130   -1.9130   -2.8930 C.2     1  UNL1        0.3030
      3  O          7.3170   -2.4350   -3.2320 O.2     1  UNL1       -0.2520
      4  O          9.6060   -2.5530   -3.2580 O.3     1  UNL1       -0.4810
      5  H         10.2270   -2.8730   -2.5270 H       1  UNL1        0.2960
      6  C          7.0330    0.0100   -2.1410 C.3     1  UNL1        0.0470
      7  C          6.4830    0.1170   -0.7650 C.2     1  UNL1       -0.0470
      8  C          6.6120   -0.9330    0.1330 C.2     1  UNL1        0.0040
      9  C          5.8160    1.2400   -0.3100 C.2     1  UNL1        0.0040
     10  C          6.1050   -0.8690    1.4100 C.2     1  UNL1        0.0000
     11  C          5.3080    1.3030    0.9700 C.2     1  UNL1        0.0000
     12  C          5.4400    0.2560    1.8540 C.2     1  UNL1        0.0000
@<TRIPOS>BOND
     1     4     2    1
     2     4     5    1
     3     3     2    2
     4     2     1    1
     5     6     1    1
     6     6     7    1
     7     7     9    2
     8     7     8    1
     9     9    11    1
    10     8    10    2
    11    11    12    2
    12    10    12    1
