MODEL 1
REMARK VINA RESULT:      -7.3      0.000      0.000
REMARK SMILES O=C(O)CCc1ccccc1
REMARK SMILES IDX 4 1 2 2 1 3 3 4 5 6 6 7 7 8 11 9 8 10 10 11 9 12
REMARK H PARENT 3 5
REMARK Flexibility Score: inf
ROOT
ATOM      1  C   UNL     1       8.406  -0.641  -2.156  1.00  0.00     0.127 C 
ENDROOT
BRANCH   1   2
ATOM      2  C   UNL     1       8.434  -1.910  -2.903  1.00  0.00     0.303 C 
ATOM      3  O   UNL     1       9.536  -2.501  -3.065  1.00  0.00    -0.252 OA
BRANCH   2   4
ATOM      4  O   UNL     1       7.275  -2.487  -3.441  1.00  0.00    -0.481 OA
ATOM      5  H   UNL     1       6.666  -3.012  -2.827  1.00  0.00     0.296 HD
ENDBRANCH   2   4
ENDBRANCH   1   2
BRANCH   1   6
ATOM      6  C   UNL     1       7.022  -0.018  -2.134  1.00  0.00     0.047 C 
BRANCH   6   7
ATOM      7  C   UNL     1       6.485   0.038  -0.749  1.00  0.00    -0.047 A 
ATOM      8  C   UNL     1       5.832   1.173  -0.289  1.00  0.00     0.004 A 
ATOM      9  C   UNL     1       6.610  -1.009   0.145  1.00  0.00     0.004 A 
ATOM     10  C   UNL     1       5.333   1.260   0.991  1.00  0.00     0.000 A 
ATOM     11  C   UNL     1       6.110  -0.920   1.427  1.00  0.00     0.000 A 
ATOM     12  C   UNL     1       5.465   0.210   1.877  1.00  0.00     0.000 A 
ENDBRANCH   6   7
ENDBRANCH   1   6
TORSDOF 4
ENDMDL
MODEL 2
REMARK VINA RESULT:      -7.3      0.105      1.723
REMARK SMILES O=C(O)CCc1ccccc1
REMARK SMILES IDX 4 1 2 2 1 3 3 4 5 6 6 7 7 8 11 9 8 10 10 11 9 12
REMARK H PARENT 3 5
REMARK Flexibility Score: inf
ROOT
ATOM      1  C   UNL     1       8.399  -0.651  -2.131  1.00  0.00     0.127 C 
ENDROOT
BRANCH   1   2
ATOM      2  C   UNL     1       8.413  -1.913  -2.893  1.00  0.00     0.303 C 
ATOM      3  O   UNL     1       7.317  -2.435  -3.232  1.00  0.00    -0.252 OA
BRANCH   2   4
ATOM      4  O   UNL     1       9.606  -2.553  -3.258  1.00  0.00    -0.481 OA
ATOM      5  H   UNL     1      10.227  -2.873  -2.527  1.00  0.00     0.296 HD
ENDBRANCH   2   4
ENDBRANCH   1   2
BRANCH   1   6
ATOM      6  C   UNL     1       7.033   0.010  -2.141  1.00  0.00     0.047 C 
BRANCH   6   7
ATOM      7  C   UNL     1       6.483   0.117  -0.765  1.00  0.00    -0.047 A 
ATOM      8  C   UNL     1       6.612  -0.933   0.133  1.00  0.00     0.004 A 
ATOM      9  C   UNL     1       5.816   1.240  -0.310  1.00  0.00     0.004 A 
ATOM     10  C   UNL     1       6.105  -0.869   1.410  1.00  0.00     0.000 A 
ATOM     11  C   UNL     1       5.308   1.303   0.970  1.00  0.00     0.000 A 
ATOM     12  C   UNL     1       5.440   0.256   1.854  1.00  0.00     0.000 A 
ENDBRANCH   6   7
ENDBRANCH   1   6
TORSDOF 4
ENDMDL
MODEL 3
REMARK VINA RESULT:      -7.1      0.673      1.628
REMARK SMILES O=C(O)CCc1ccccc1
REMARK SMILES IDX 4 1 2 2 1 3 3 4 5 6 6 7 7 8 11 9 8 10 10 11 9 12
REMARK H PARENT 3 5
REMARK Flexibility Score: inf
ROOT
ATOM      1  C   UNL     1       8.301  -0.893  -1.905  1.00  0.00     0.127 C 
ENDROOT
BRANCH   1   2
ATOM      2  C   UNL     1       8.401  -2.005  -2.866  1.00  0.00     0.303 C 
ATOM      3  O   UNL     1       9.534  -2.500  -3.113  1.00  0.00    -0.252 OA
BRANCH   2   4
ATOM      4  O   UNL     1       7.278  -2.535  -3.516  1.00  0.00    -0.481 OA
ATOM      5  H   UNL     1       6.763  -3.279  -3.064  1.00  0.00     0.296 HD
ENDBRANCH   2   4
ENDBRANCH   1   2
BRANCH   1   6
ATOM      6  C   UNL     1       7.687  -1.328  -0.586  1.00  0.00     0.047 C 
BRANCH   6   7
ATOM      7  C   UNL     1       6.756  -0.293  -0.064  1.00  0.00    -0.047 A 
ATOM      8  C   UNL     1       6.199  -0.415   1.200  1.00  0.00     0.004 A 
ATOM      9  C   UNL     1       6.391   0.822  -0.796  1.00  0.00     0.004 A 
ATOM     10  C   UNL     1       5.326   0.520   1.708  1.00  0.00     0.000 A 
ATOM     11  C   UNL     1       5.517   1.758  -0.286  1.00  0.00     0.000 A 
ATOM     12  C   UNL     1       4.967   1.629   0.969  1.00  0.00     0.000 A 
ENDBRANCH   6   7
ENDBRANCH   1   6
TORSDOF 4
ENDMDL
MODEL 4
REMARK VINA RESULT:      -6.8      3.406      5.081
REMARK SMILES O=C(O)CCc1ccccc1
REMARK SMILES IDX 4 1 2 2 1 3 3 4 5 6 6 7 7 8 11 9 8 10 10 11 9 12
REMARK H PARENT 3 5
REMARK Flexibility Score: inf
ROOT
ATOM      1  C   UNL     1       4.992   1.771   0.737  1.00  0.00     0.127 C 
ENDROOT
BRANCH   1   2
ATOM      2  C   UNL     1       4.452   1.107   1.937  1.00  0.00     0.303 C 
ATOM      3  O   UNL     1       5.125   0.192   2.485  1.00  0.00    -0.252 OA
BRANCH   2   4
ATOM      4  O   UNL     1       3.213   1.458   2.492  1.00  0.00    -0.481 OA
ATOM      5  H   UNL     1       2.499   1.834   1.883  1.00  0.00     0.296 HD
ENDBRANCH   2   4
ENDBRANCH   1   2
BRANCH   1   6
ATOM      6  C   UNL     1       6.506   1.871   0.769  1.00  0.00     0.047 C 
BRANCH   6   7
ATOM      7  C   UNL     1       7.116   1.066  -0.321  1.00  0.00    -0.047 A 
ATOM      8  C   UNL     1       8.452   1.232  -0.660  1.00  0.00     0.004 A 
ATOM      9  C   UNL     1       6.403   0.133  -1.051  1.00  0.00     0.004 A 
ATOM     10  C   UNL     1       9.043   0.509  -1.671  1.00  0.00     0.000 A 
ATOM     11  C   UNL     1       6.997  -0.590  -2.063  1.00  0.00     0.000 A 
ATOM     12  C   UNL     1       8.322  -0.419  -2.395  1.00  0.00     0.000 A 
ENDBRANCH   6   7
ENDBRANCH   1   6
TORSDOF 4
ENDMDL
MODEL 5
REMARK VINA RESULT:      -6.6      3.803      4.978
REMARK SMILES O=C(O)CCc1ccccc1
REMARK SMILES IDX 4 1 2 2 1 3 3 4 5 6 6 7 7 8 11 9 8 10 10 11 9 12
REMARK H PARENT 3 5
REMARK Flexibility Score: inf
ROOT
ATOM      1  C   UNL     1       5.518   2.953   0.026  1.00  0.00     0.127 C 
ENDROOT
BRANCH   1   2
ATOM      2  C   UNL     1       6.307   3.903   0.830  1.00  0.00     0.303 C 
ATOM      3  O   UNL     1       7.005   4.772   0.241  1.00  0.00    -0.252 OA
BRANCH   2   4
ATOM      4  O   UNL     1       6.308   3.875   2.232  1.00  0.00    -0.481 OA
ATOM      5  H   UNL     1       6.263   4.752   2.733  1.00  0.00     0.296 HD
ENDBRANCH   2   4
ENDBRANCH   1   2
BRANCH   1   6
ATOM      6  C   UNL     1       4.889   1.865   0.876  1.00  0.00     0.047 C 
BRANCH   6   7
ATOM      7  C   UNL     1       5.719   0.632   0.864  1.00  0.00    -0.047 A 
ATOM      8  C   UNL     1       5.814  -0.169   1.993  1.00  0.00     0.004 A 
ATOM      9  C   UNL     1       6.437   0.224  -0.245  1.00  0.00     0.004 A 
ATOM     10  C   UNL     1       6.582  -1.310   2.017  1.00  0.00     0.000 A 
ATOM     11  C   UNL     1       7.206  -0.919  -0.220  1.00  0.00     0.000 A 
ATOM     12  C   UNL     1       7.296  -1.708   0.905  1.00  0.00     0.000 A 
ENDBRANCH   6   7
ENDBRANCH   1   6
TORSDOF 4
ENDMDL
