@<TRIPOS>MOLECULE
/home/cewinharhar/GITHUB/reincatalyze/data/processed/docking_pred/2023-Apr-25-2248_maxeplen10_maxtrainstep1000_exh16_gamma099_lrac3e-4_lrcr1e-3/db57195a81496af8cffcd6b4d9524a1fe0637e4f_ligand_2.pdbqt
 12 12 0 0 0
SMALL
GASTEIGER

@<TRIPOS>ATOM
      1  C          5.5180    2.9530    0.0260 C.3     1  UNL1        0.1270
      2  C          6.3070    3.9030    0.8300 C.2     1  UNL1        0.3030
      3  O          7.0050    4.7720    0.2410 O.2     1  UNL1       -0.2520
      4  O          6.3080    3.8750    2.2320 O.3     1  UNL1       -0.4810
      5  H          6.2630    4.7520    2.7330 H       1  UNL1        0.2960
      6  C          4.8890    1.8650    0.8760 C.3     1  UNL1        0.0470
      7  C          5.7190    0.6320    0.8640 C.2     1  UNL1       -0.0470
      8  C          5.8140   -0.1690    1.9930 C.2     1  UNL1        0.0040
      9  C          6.4370    0.2240   -0.2450 C.2     1  UNL1        0.0040
     10  C          6.5820   -1.3100    2.0170 C.2     1  UNL1        0.0000
     11  C          7.2060   -0.9190   -0.2200 C.2     1  UNL1        0.0000
     12  C          7.2960   -1.7080    0.9050 C.2     1  UNL1        0.0000
@<TRIPOS>BOND
     1     9    11    1
     2     9     7    2
     3    11    12    2
     4     1     2    1
     5     1     6    1
     6     3     2    2
     7     2     4    1
     8     7     6    1
     9     7     8    1
    10    12    10    1
    11     8    10    2
    12     4     5    1
