@<TRIPOS>MOLECULE
/home/cewinharhar/GITHUB/reincatalyze/data/processed/docking_pred/2023-Apr-25-2248_maxeplen10_maxtrainstep1000_exh16_gamma099_lrac3e-4_lrcr1e-3/db57195a81496af8cffcd6b4d9524a1fe0637e4f_ligand_2.pdbqt
 12 12 0 0 0
SMALL
GASTEIGER

@<TRIPOS>ATOM
      1  C          8.4060   -0.6410   -2.1560 C.3     1  UNL1        0.1270
      2  C          8.4340   -1.9100   -2.9030 C.2     1  UNL1        0.3030
      3  O          9.5360   -2.5010   -3.0650 O.2     1  UNL1       -0.2520
      4  O          7.2750   -2.4870   -3.4410 O.3     1  UNL1       -0.4810
      5  H          6.6660   -3.0120   -2.8270 H       1  UNL1        0.2960
      6  C          7.0220   -0.0180   -2.1340 C.3     1  UNL1        0.0470
      7  C          6.4850    0.0380   -0.7490 C.2     1  UNL1       -0.0470
      8  C          5.8320    1.1730   -0.2890 C.2     1  UNL1        0.0040
      9  C          6.6100   -1.0090    0.1450 C.2     1  UNL1        0.0040
     10  C          5.3330    1.2600    0.9910 C.2     1  UNL1        0.0000
     11  C          6.1100   -0.9200    1.4270 C.2     1  UNL1        0.0000
     12  C          5.4650    0.2100    1.8770 C.2     1  UNL1        0.0000
@<TRIPOS>BOND
     1     4     2    1
     2     4     5    1
     3     3     2    2
     4     2     1    1
     5     1     6    1
     6     6     7    1
     7     7     8    2
     8     7     9    1
     9     8    10    1
    10     9    11    2
    11    10    12    2
    12    11    12    1
