@<TRIPOS>MOLECULE
/home/cewinharhar/GITHUB/reincatalyze/data/processed/docking_pred/2023-Apr-25-2248_maxeplen10_maxtrainstep1000_exh16_gamma099_lrac3e-4_lrcr1e-3/db6d960fae65c9d90f474a1e8ae318b6f28ec3f2_ligand_2.pdbqt
 12 12 0 0 0
SMALL
GASTEIGER

@<TRIPOS>ATOM
      1  C          8.3140   -1.7180    1.1580 C.3     1  UNL1        0.1270
      2  C          8.7040   -2.9600    0.4680 C.2     1  UNL1        0.3030
      3  O          9.4430   -3.7870    1.0670 O.2     1  UNL1       -0.2520
      4  O          8.2800   -3.2560   -0.8350 O.3     1  UNL1       -0.4810
      5  H          8.3420   -4.2120   -1.1580 H       1  UNL1        0.2960
      6  C          6.8180   -1.6460    1.4090 C.3     1  UNL1        0.0470
      7  C          6.2500   -0.3800    0.8760 C.2     1  UNL1       -0.0470
      8  C          6.5070    0.0180   -0.4280 C.2     1  UNL1        0.0040
      9  C          5.4570    0.4620    1.6350 C.2     1  UNL1        0.0040
     10  C          6.0040    1.1890   -0.9470 C.2     1  UNL1        0.0000
     11  C          4.9540    1.6340    1.1130 C.2     1  UNL1        0.0000
     12  C          5.2150    2.0230   -0.1810 C.2     1  UNL1        0.0000
@<TRIPOS>BOND
     1     5     4    1
     2    10     8    1
     3    10    12    2
     4     4     2    1
     5     8     7    2
     6    12    11    1
     7     2     3    2
     8     2     1    1
     9     7     6    1
    10     7     9    1
    11    11     9    2
    12     1     6    1
