@<TRIPOS>MOLECULE
/home/cewinharhar/GITHUB/reincatalyze/data/processed/docking_pred/2023-Apr-25-2248_maxeplen10_maxtrainstep1000_exh16_gamma099_lrac3e-4_lrcr1e-3/db6d960fae65c9d90f474a1e8ae318b6f28ec3f2_ligand_2.pdbqt
 12 12 0 0 0
SMALL
GASTEIGER

@<TRIPOS>ATOM
      1  C          8.4280   -0.7250   -2.0500 C.3     1  UNL1        0.1270
      2  C          8.4050   -1.9510   -2.8680 C.2     1  UNL1        0.3030
      3  O          7.2950   -2.4180   -3.2410 O.2     1  UNL1       -0.2520
      4  O          9.5790   -2.6180   -3.2480 O.3     1  UNL1       -0.4810
      5  H         10.3400   -2.0750   -3.6340 H       1  UNL1        0.2960
      6  C          7.1090    0.0260   -2.1050 C.3     1  UNL1        0.0470
      7  C          6.5110    0.1530   -0.7510 C.2     1  UNL1       -0.0470
      8  C          6.6290   -0.8750    0.1740 C.2     1  UNL1        0.0040
      9  C          5.8100    1.2730   -0.3440 C.2     1  UNL1        0.0040
     10  C          6.0770   -0.7920    1.4320 C.2     1  UNL1        0.0000
     11  C          5.2590    1.3550    0.9160 C.2     1  UNL1        0.0000
     12  C          5.3780    0.3300    1.8280 C.2     1  UNL1        0.0000
@<TRIPOS>BOND
     1     5     4    1
     2     4     2    1
     3     3     2    2
     4     2     1    1
     5     6     1    1
     6     6     7    1
     7     7     9    2
     8     7     8    1
     9     9    11    1
    10     8    10    2
    11    11    12    2
    12    10    12    1
