@<TRIPOS>MOLECULE
/home/cewinharhar/GITHUB/reincatalyze/data/processed/docking_pred/2023-Apr-25-2248_maxeplen10_maxtrainstep1000_exh16_gamma099_lrac3e-4_lrcr1e-3/db6d960fae65c9d90f474a1e8ae318b6f28ec3f2_ligand_2.pdbqt
 12 12 0 0 0
SMALL
GASTEIGER

@<TRIPOS>ATOM
      1  C          8.4930    0.6510   -1.7110 C.3     1  UNL1        0.1270
      2  C          9.6430    0.2990   -0.8590 C.2     1  UNL1        0.3030
      3  O          9.4740   -0.5090    0.0940 O.2     1  UNL1       -0.2520
      4  O         10.9230    0.8310   -1.0730 O.3     1  UNL1       -0.4810
      5  H         11.3540    0.7040   -1.9780 H       1  UNL1        0.2960
      6  C          7.2930   -0.2420   -1.4520 C.3     1  UNL1        0.0470
      7  C          6.4120    0.3390   -0.4060 C.2     1  UNL1       -0.0470
      8  C          6.1920   -0.3340    0.7870 C.2     1  UNL1        0.0040
      9  C          5.7660    1.5520   -0.5610 C.2     1  UNL1        0.0040
     10  C          5.3730    0.1720    1.7710 C.2     1  UNL1        0.0000
     11  C          4.9470    2.0570    0.4260 C.2     1  UNL1        0.0000
     12  C          4.7320    1.3830    1.6070 C.2     1  UNL1        0.0000
@<TRIPOS>BOND
     1     5     4    1
     2     1     6    1
     3     1     2    1
     4     6     7    1
     5     4     2    1
     6     2     3    2
     7     9     7    2
     8     9    11    1
     9     7     8    1
    10    11    12    2
    11     8    10    2
    12    12    10    1
