MODEL 1
REMARK VINA RESULT:      -7.3      0.000      0.000
REMARK SMILES O=C(O)CCc1ccccc1
REMARK SMILES IDX 4 1 2 2 1 3 3 4 5 6 6 7 7 8 11 9 8 10 10 11 9 12
REMARK H PARENT 3 5
REMARK Flexibility Score: inf
ROOT
ATOM      1  C   UNL     1       8.428  -0.725  -2.050  1.00  0.00     0.127 C 
ENDROOT
BRANCH   1   2
ATOM      2  C   UNL     1       8.405  -1.951  -2.868  1.00  0.00     0.303 C 
ATOM      3  O   UNL     1       7.295  -2.418  -3.241  1.00  0.00    -0.252 OA
BRANCH   2   4
ATOM      4  O   UNL     1       9.579  -2.618  -3.248  1.00  0.00    -0.481 OA
ATOM      5  H   UNL     1      10.340  -2.075  -3.634  1.00  0.00     0.296 HD
ENDBRANCH   2   4
ENDBRANCH   1   2
BRANCH   1   6
ATOM      6  C   UNL     1       7.109   0.026  -2.105  1.00  0.00     0.047 C 
BRANCH   6   7
ATOM      7  C   UNL     1       6.511   0.153  -0.751  1.00  0.00    -0.047 A 
ATOM      8  C   UNL     1       6.629  -0.875   0.174  1.00  0.00     0.004 A 
ATOM      9  C   UNL     1       5.810   1.273  -0.344  1.00  0.00     0.004 A 
ATOM     10  C   UNL     1       6.077  -0.792   1.432  1.00  0.00     0.000 A 
ATOM     11  C   UNL     1       5.259   1.355   0.916  1.00  0.00     0.000 A 
ATOM     12  C   UNL     1       5.378   0.330   1.828  1.00  0.00     0.000 A 
ENDBRANCH   6   7
ENDBRANCH   1   6
TORSDOF 4
ENDMDL
MODEL 2
REMARK VINA RESULT:      -7.2      0.125      1.425
REMARK SMILES O=C(O)CCc1ccccc1
REMARK SMILES IDX 4 1 2 2 1 3 3 4 5 6 6 7 7 8 11 9 8 10 10 11 9 12
REMARK H PARENT 3 5
REMARK Flexibility Score: inf
ROOT
ATOM      1  C   UNL     1       8.395  -0.598  -2.187  1.00  0.00     0.127 C 
ENDROOT
BRANCH   1   2
ATOM      2  C   UNL     1       8.404  -1.886  -2.903  1.00  0.00     0.303 C 
ATOM      3  O   UNL     1       7.306  -2.413  -3.230  1.00  0.00    -0.252 OA
BRANCH   2   4
ATOM      4  O   UNL     1       9.595  -2.549  -3.235  1.00  0.00    -0.481 OA
ATOM      5  H   UNL     1       9.545  -3.516  -3.526  1.00  0.00     0.296 HD
ENDBRANCH   2   4
ENDBRANCH   1   2
BRANCH   1   6
ATOM      6  C   UNL     1       7.011   0.025  -2.146  1.00  0.00     0.047 C 
BRANCH   6   7
ATOM      7  C   UNL     1       6.486   0.066  -0.757  1.00  0.00    -0.047 A 
ATOM      8  C   UNL     1       5.850   1.200  -0.273  1.00  0.00     0.004 A 
ATOM      9  C   UNL     1       6.606  -0.997   0.120  1.00  0.00     0.004 A 
ATOM     10  C   UNL     1       5.362   1.273   1.012  1.00  0.00     0.000 A 
ATOM     11  C   UNL     1       6.117  -0.923   1.407  1.00  0.00     0.000 A 
ATOM     12  C   UNL     1       5.488   0.207   1.879  1.00  0.00     0.000 A 
ENDBRANCH   6   7
ENDBRANCH   1   6
TORSDOF 4
ENDMDL
MODEL 3
REMARK VINA RESULT:      -6.8      3.318      5.171
REMARK SMILES O=C(O)CCc1ccccc1
REMARK SMILES IDX 4 1 2 2 1 3 3 4 5 6 6 7 7 8 11 9 8 10 10 11 9 12
REMARK H PARENT 3 5
REMARK Flexibility Score: inf
ROOT
ATOM      1  C   UNL     1       4.990   1.783   0.717  1.00  0.00     0.127 C 
ENDROOT
BRANCH   1   2
ATOM      2  C   UNL     1       4.469   1.114   1.922  1.00  0.00     0.303 C 
ATOM      3  O   UNL     1       5.159   0.212   2.469  1.00  0.00    -0.252 OA
BRANCH   2   4
ATOM      4  O   UNL     1       3.228   1.447   2.485  1.00  0.00    -0.481 OA
ATOM      5  H   UNL     1       2.902   2.401   2.406  1.00  0.00     0.296 HD
ENDBRANCH   2   4
ENDBRANCH   1   2
BRANCH   1   6
ATOM      6  C   UNL     1       6.503   1.907   0.739  1.00  0.00     0.047 C 
BRANCH   6   7
ATOM      7  C   UNL     1       7.120   1.089  -0.337  1.00  0.00    -0.047 A 
ATOM      8  C   UNL     1       8.468   1.219  -0.641  1.00  0.00     0.004 A 
ATOM      9  C   UNL     1       6.402   0.178  -1.090  1.00  0.00     0.004 A 
ATOM     10  C   UNL     1       9.066   0.484  -1.638  1.00  0.00     0.000 A 
ATOM     11  C   UNL     1       7.003  -0.558  -2.089  1.00  0.00     0.000 A 
ATOM     12  C   UNL     1       8.340  -0.422  -2.385  1.00  0.00     0.000 A 
ENDBRANCH   6   7
ENDBRANCH   1   6
TORSDOF 4
ENDMDL
MODEL 4
REMARK VINA RESULT:      -6.6      2.006      2.975
REMARK SMILES O=C(O)CCc1ccccc1
REMARK SMILES IDX 4 1 2 2 1 3 3 4 5 6 6 7 7 8 11 9 8 10 10 11 9 12
REMARK H PARENT 3 5
REMARK Flexibility Score: inf
ROOT
ATOM      1  C   UNL     1       8.314  -1.718   1.158  1.00  0.00     0.127 C 
ENDROOT
BRANCH   1   2
ATOM      2  C   UNL     1       8.704  -2.960   0.468  1.00  0.00     0.303 C 
ATOM      3  O   UNL     1       9.443  -3.787   1.067  1.00  0.00    -0.252 OA
BRANCH   2   4
ATOM      4  O   UNL     1       8.280  -3.256  -0.835  1.00  0.00    -0.481 OA
ATOM      5  H   UNL     1       8.342  -4.212  -1.158  1.00  0.00     0.296 HD
ENDBRANCH   2   4
ENDBRANCH   1   2
BRANCH   1   6
ATOM      6  C   UNL     1       6.818  -1.646   1.409  1.00  0.00     0.047 C 
BRANCH   6   7
ATOM      7  C   UNL     1       6.250  -0.380   0.876  1.00  0.00    -0.047 A 
ATOM      8  C   UNL     1       6.507   0.018  -0.428  1.00  0.00     0.004 A 
ATOM      9  C   UNL     1       5.457   0.462   1.635  1.00  0.00     0.004 A 
ATOM     10  C   UNL     1       6.004   1.189  -0.947  1.00  0.00     0.000 A 
ATOM     11  C   UNL     1       4.954   1.634   1.113  1.00  0.00     0.000 A 
ATOM     12  C   UNL     1       5.215   2.023  -0.181  1.00  0.00     0.000 A 
ENDBRANCH   6   7
ENDBRANCH   1   6
TORSDOF 4
ENDMDL
MODEL 5
REMARK VINA RESULT:      -6.5      2.051      2.261
REMARK SMILES O=C(O)CCc1ccccc1
REMARK SMILES IDX 4 1 2 2 1 3 3 4 5 6 6 7 7 8 11 9 8 10 10 11 9 12
REMARK H PARENT 3 5
REMARK Flexibility Score: inf
ROOT
ATOM      1  C   UNL     1       8.493   0.651  -1.711  1.00  0.00     0.127 C 
ENDROOT
BRANCH   1   2
ATOM      2  C   UNL     1       9.643   0.299  -0.859  1.00  0.00     0.303 C 
ATOM      3  O   UNL     1       9.474  -0.509   0.094  1.00  0.00    -0.252 OA
BRANCH   2   4
ATOM      4  O   UNL     1      10.923   0.831  -1.073  1.00  0.00    -0.481 OA
ATOM      5  H   UNL     1      11.354   0.704  -1.978  1.00  0.00     0.296 HD
ENDBRANCH   2   4
ENDBRANCH   1   2
BRANCH   1   6
ATOM      6  C   UNL     1       7.293  -0.242  -1.452  1.00  0.00     0.047 C 
BRANCH   6   7
ATOM      7  C   UNL     1       6.412   0.339  -0.406  1.00  0.00    -0.047 A 
ATOM      8  C   UNL     1       6.192  -0.334   0.787  1.00  0.00     0.004 A 
ATOM      9  C   UNL     1       5.766   1.552  -0.561  1.00  0.00     0.004 A 
ATOM     10  C   UNL     1       5.373   0.172   1.771  1.00  0.00     0.000 A 
ATOM     11  C   UNL     1       4.947   2.057   0.426  1.00  0.00     0.000 A 
ATOM     12  C   UNL     1       4.732   1.383   1.607  1.00  0.00     0.000 A 
ENDBRANCH   6   7
ENDBRANCH   1   6
TORSDOF 4
ENDMDL
