@<TRIPOS>MOLECULE
/home/cewinharhar/GITHUB/reincatalyze/data/processed/docking_pred/2023-Apr-25-2248_maxeplen10_maxtrainstep1000_exh16_gamma099_lrac3e-4_lrcr1e-3/db6d960fae65c9d90f474a1e8ae318b6f28ec3f2_ligand_2.pdbqt
 12 12 0 0 0
SMALL
GASTEIGER

@<TRIPOS>ATOM
      1  C          8.3950   -0.5980   -2.1870 C.3     1  UNL1        0.1270
      2  C          8.4040   -1.8860   -2.9030 C.2     1  UNL1        0.3030
      3  O          7.3060   -2.4130   -3.2300 O.2     1  UNL1       -0.2520
      4  O          9.5950   -2.5490   -3.2350 O.3     1  UNL1       -0.4810
      5  H          9.5450   -3.5160   -3.5260 H       1  UNL1        0.2960
      6  C          7.0110    0.0250   -2.1460 C.3     1  UNL1        0.0470
      7  C          6.4860    0.0660   -0.7570 C.2     1  UNL1       -0.0470
      8  C          5.8500    1.2000   -0.2730 C.2     1  UNL1        0.0040
      9  C          6.6060   -0.9970    0.1200 C.2     1  UNL1        0.0040
     10  C          5.3620    1.2730    1.0120 C.2     1  UNL1        0.0000
     11  C          6.1170   -0.9230    1.4070 C.2     1  UNL1        0.0000
     12  C          5.4880    0.2070    1.8790 C.2     1  UNL1        0.0000
@<TRIPOS>BOND
     1     5     4    1
     2     4     2    1
     3     3     2    2
     4     2     1    1
     5     1     6    1
     6     6     7    1
     7     7     8    2
     8     7     9    1
     9     8    10    1
    10     9    11    2
    11    10    12    2
    12    11    12    1
