@<TRIPOS>MOLECULE
/home/cewinharhar/GITHUB/reincatalyze/data/processed/docking_pred/2023-Apr-25-2248_maxeplen10_maxtrainstep1000_exh16_gamma099_lrac3e-4_lrcr1e-3/db6d960fae65c9d90f474a1e8ae318b6f28ec3f2_ligand_2.pdbqt
 12 12 0 0 0
SMALL
GASTEIGER

@<TRIPOS>ATOM
      1  C          4.9900    1.7830    0.7170 C.3     1  UNL1        0.1270
      2  C          4.4690    1.1140    1.9220 C.2     1  UNL1        0.3030
      3  O          5.1590    0.2120    2.4690 O.2     1  UNL1       -0.2520
      4  O          3.2280    1.4470    2.4850 O.3     1  UNL1       -0.4810
      5  H          2.9020    2.4010    2.4060 H       1  UNL1        0.2960
      6  C          6.5030    1.9070    0.7390 C.3     1  UNL1        0.0470
      7  C          7.1200    1.0890   -0.3370 C.2     1  UNL1       -0.0470
      8  C          8.4680    1.2190   -0.6410 C.2     1  UNL1        0.0040
      9  C          6.4020    0.1780   -1.0900 C.2     1  UNL1        0.0040
     10  C          9.0660    0.4840   -1.6380 C.2     1  UNL1        0.0000
     11  C          7.0030   -0.5580   -2.0890 C.2     1  UNL1        0.0000
     12  C          8.3400   -0.4220   -2.3850 C.2     1  UNL1        0.0000
@<TRIPOS>BOND
     1    12    11    2
     2    12    10    1
     3    11     9    1
     4    10     8    2
     5     9     7    2
     6     8     7    1
     7     7     6    1
     8     1     6    1
     9     1     2    1
    10     2     3    2
    11     2     4    1
    12     5     4    1
