@<TRIPOS>MOLECULE
/home/cewinharhar/GITHUB/reincatalyze/data/processed/docking_pred/2023-Apr-25-2248_maxeplen10_maxtrainstep1000_exh16_gamma099_lrac3e-4_lrcr1e-3/dba3942d2f0306a5a819952336ad453bb769fd78_ligand_2.pdbqt
 12 12 0 0 0
SMALL
GASTEIGER

@<TRIPOS>ATOM
      1  C          8.3480   -0.6220   -2.1580 C.3     1  UNL1        0.1270
      2  C          8.4070   -1.8970   -2.8950 C.2     1  UNL1        0.3030
      3  O          9.5210   -2.4700   -3.0380 O.2     1  UNL1       -0.2520
      4  O          7.2640   -2.4970   -3.4430 O.3     1  UNL1       -0.4810
      5  H          6.4780   -1.9090   -3.6860 H       1  UNL1        0.2960
      6  C          6.9500   -0.0310   -2.1450 C.3     1  UNL1        0.0470
      7  C          6.4340    0.0870   -0.7560 C.2     1  UNL1       -0.0470
      8  C          6.5560   -0.9690    0.1360 C.2     1  UNL1        0.0040
      9  C          5.8090    1.2270   -0.2840 C.2     1  UNL1        0.0040
     10  C          6.0800   -0.8950    1.4250 C.2     1  UNL1        0.0000
     11  C          5.3330    1.2990    1.0080 C.2     1  UNL1        0.0000
     12  C          5.4560    0.2470    1.8860 C.2     1  UNL1        0.0000
@<TRIPOS>BOND
     1     5     4    1
     2     4     2    1
     3     3     2    2
     4     2     1    1
     5     1     6    1
     6     6     7    1
     7     7     9    2
     8     7     8    1
     9     9    11    1
    10     8    10    2
    11    11    12    2
    12    10    12    1
