MODEL 1
REMARK VINA RESULT:      -7.3      0.000      0.000
REMARK SMILES O=C(O)CCc1ccccc1
REMARK SMILES IDX 4 1 2 2 1 3 3 4 5 6 6 7 7 8 11 9 8 10 10 11 9 12
REMARK H PARENT 3 5
REMARK Flexibility Score: inf
ROOT
ATOM      1  C   UNL     1       8.348  -0.622  -2.158  1.00  0.00     0.127 C 
ENDROOT
BRANCH   1   2
ATOM      2  C   UNL     1       8.407  -1.897  -2.895  1.00  0.00     0.303 C 
ATOM      3  O   UNL     1       9.521  -2.470  -3.038  1.00  0.00    -0.252 OA
BRANCH   2   4
ATOM      4  O   UNL     1       7.264  -2.497  -3.443  1.00  0.00    -0.481 OA
ATOM      5  H   UNL     1       6.478  -1.909  -3.686  1.00  0.00     0.296 HD
ENDBRANCH   2   4
ENDBRANCH   1   2
BRANCH   1   6
ATOM      6  C   UNL     1       6.950  -0.031  -2.145  1.00  0.00     0.047 C 
BRANCH   6   7
ATOM      7  C   UNL     1       6.434   0.087  -0.756  1.00  0.00    -0.047 A 
ATOM      8  C   UNL     1       6.556  -0.969   0.136  1.00  0.00     0.004 A 
ATOM      9  C   UNL     1       5.809   1.227  -0.284  1.00  0.00     0.004 A 
ATOM     10  C   UNL     1       6.080  -0.895   1.425  1.00  0.00     0.000 A 
ATOM     11  C   UNL     1       5.333   1.299   1.008  1.00  0.00     0.000 A 
ATOM     12  C   UNL     1       5.456   0.247   1.886  1.00  0.00     0.000 A 
ENDBRANCH   6   7
ENDBRANCH   1   6
TORSDOF 4
ENDMDL
MODEL 2
REMARK VINA RESULT:      -7.3      0.070      1.422
REMARK SMILES O=C(O)CCc1ccccc1
REMARK SMILES IDX 4 1 2 2 1 3 3 4 5 6 6 7 7 8 11 9 8 10 10 11 9 12
REMARK H PARENT 3 5
REMARK Flexibility Score: inf
ROOT
ATOM      1  C   UNL     1       8.415  -0.614  -2.209  1.00  0.00     0.127 C 
ENDROOT
BRANCH   1   2
ATOM      2  C   UNL     1       8.451  -1.898  -2.932  1.00  0.00     0.303 C 
ATOM      3  O   UNL     1       9.556  -2.487  -3.077  1.00  0.00    -0.252 OA
BRANCH   2   4
ATOM      4  O   UNL     1       7.297  -2.489  -3.465  1.00  0.00    -0.481 OA
ATOM      5  H   UNL     1       6.577  -2.803  -2.829  1.00  0.00     0.296 HD
ENDBRANCH   2   4
ENDBRANCH   1   2
BRANCH   1   6
ATOM      6  C   UNL     1       7.023  -0.007  -2.187  1.00  0.00     0.047 C 
BRANCH   6   7
ATOM      7  C   UNL     1       6.494   0.062  -0.800  1.00  0.00    -0.047 A 
ATOM      8  C   UNL     1       5.855   1.206  -0.343  1.00  0.00     0.004 A 
ATOM      9  C   UNL     1       6.612  -0.981   0.099  1.00  0.00     0.004 A 
ATOM     10  C   UNL     1       5.363   1.305   0.938  1.00  0.00     0.000 A 
ATOM     11  C   UNL     1       6.119  -0.880   1.382  1.00  0.00     0.000 A 
ATOM     12  C   UNL     1       5.488   0.258   1.829  1.00  0.00     0.000 A 
ENDBRANCH   6   7
ENDBRANCH   1   6
TORSDOF 4
ENDMDL
MODEL 3
REMARK VINA RESULT:      -6.8      3.404      5.073
REMARK SMILES O=C(O)CCc1ccccc1
REMARK SMILES IDX 4 1 2 2 1 3 3 4 5 6 6 7 7 8 11 9 8 10 10 11 9 12
REMARK H PARENT 3 5
REMARK Flexibility Score: inf
ROOT
ATOM      1  C   UNL     1       5.046   1.766   0.735  1.00  0.00     0.127 C 
ENDROOT
BRANCH   1   2
ATOM      2  C   UNL     1       4.488   1.111   1.930  1.00  0.00     0.303 C 
ATOM      3  O   UNL     1       5.153   0.201   2.497  1.00  0.00    -0.252 OA
BRANCH   2   4
ATOM      4  O   UNL     1       3.240   1.464   2.463  1.00  0.00    -0.481 OA
ATOM      5  H   UNL     1       2.417   1.339   1.890  1.00  0.00     0.296 HD
ENDBRANCH   2   4
ENDBRANCH   1   2
BRANCH   1   6
ATOM      6  C   UNL     1       6.561   1.861   0.786  1.00  0.00     0.047 C 
BRANCH   6   7
ATOM      7  C   UNL     1       7.181   1.095  -0.326  1.00  0.00    -0.047 A 
ATOM      8  C   UNL     1       6.431   0.196  -1.071  1.00  0.00     0.004 A 
ATOM      9  C   UNL     1       8.514   1.223  -0.671  1.00  0.00     0.004 A 
ATOM     10  C   UNL     1       6.978  -0.535  -2.100  1.00  0.00     0.000 A 
ATOM     11  C   UNL     1       9.060   0.490  -1.702  1.00  0.00     0.000 A 
ATOM     12  C   UNL     1       8.310  -0.401  -2.436  1.00  0.00     0.000 A 
ENDBRANCH   6   7
ENDBRANCH   1   6
TORSDOF 4
ENDMDL
MODEL 4
REMARK VINA RESULT:      -6.7      1.040      1.853
REMARK SMILES O=C(O)CCc1ccccc1
REMARK SMILES IDX 4 1 2 2 1 3 3 4 5 6 6 7 7 8 11 9 8 10 10 11 9 12
REMARK H PARENT 3 5
REMARK Flexibility Score: inf
ROOT
ATOM      1  C   UNL     1       7.551  -1.561  -1.895  1.00  0.00     0.127 C 
ENDROOT
BRANCH   1   2
ATOM      2  C   UNL     1       8.444  -2.631  -2.373  1.00  0.00     0.303 C 
ATOM      3  O   UNL     1       9.378  -2.339  -3.168  1.00  0.00    -0.252 OA
BRANCH   2   4
ATOM      4  O   UNL     1       8.293  -3.966  -1.972  1.00  0.00    -0.481 OA
ATOM      5  H   UNL     1       7.704  -4.168  -1.176  1.00  0.00     0.296 HD
ENDBRANCH   2   4
ENDBRANCH   1   2
BRANCH   1   6
ATOM      6  C   UNL     1       7.595  -1.408  -0.385  1.00  0.00     0.047 C 
BRANCH   6   7
ATOM      7  C   UNL     1       6.662  -0.344   0.070  1.00  0.00    -0.047 A 
ATOM      8  C   UNL     1       6.336   0.716  -0.764  1.00  0.00     0.004 A 
ATOM      9  C   UNL     1       6.084  -0.342   1.326  1.00  0.00     0.004 A 
ATOM     10  C   UNL     1       5.484   1.721  -0.369  1.00  0.00     0.000 A 
ATOM     11  C   UNL     1       5.231   0.666   1.721  1.00  0.00     0.000 A 
ATOM     12  C   UNL     1       4.914   1.715   0.888  1.00  0.00     0.000 A 
ENDBRANCH   6   7
ENDBRANCH   1   6
TORSDOF 4
ENDMDL
MODEL 5
REMARK VINA RESULT:      -6.6      1.972      2.919
REMARK SMILES O=C(O)CCc1ccccc1
REMARK SMILES IDX 4 1 2 2 1 3 3 4 5 6 6 7 7 8 11 9 8 10 10 11 9 12
REMARK H PARENT 3 5
REMARK Flexibility Score: inf
ROOT
ATOM      1  C   UNL     1       8.302  -1.751   1.195  1.00  0.00     0.127 C 
ENDROOT
BRANCH   1   2
ATOM      2  C   UNL     1       8.705  -2.975   0.480  1.00  0.00     0.303 C 
ATOM      3  O   UNL     1       9.456  -3.805   1.062  1.00  0.00    -0.252 OA
BRANCH   2   4
ATOM      4  O   UNL     1       8.281  -3.252  -0.828  1.00  0.00    -0.481 OA
ATOM      5  H   UNL     1       8.980  -3.351  -1.552  1.00  0.00     0.296 HD
ENDBRANCH   2   4
ENDBRANCH   1   2
BRANCH   1   6
ATOM      6  C   UNL     1       6.801  -1.681   1.412  1.00  0.00     0.047 C 
BRANCH   6   7
ATOM      7  C   UNL     1       6.245  -0.409   0.882  1.00  0.00    -0.047 A 
ATOM      8  C   UNL     1       6.511  -0.008  -0.420  1.00  0.00     0.004 A 
ATOM      9  C   UNL     1       5.456   0.437   1.640  1.00  0.00     0.004 A 
ATOM     10  C   UNL     1       6.020   1.169  -0.937  1.00  0.00     0.000 A 
ATOM     11  C   UNL     1       4.965   1.615   1.121  1.00  0.00     0.000 A 
ATOM     12  C   UNL     1       5.235   2.007  -0.171  1.00  0.00     0.000 A 
ENDBRANCH   6   7
ENDBRANCH   1   6
TORSDOF 4
ENDMDL
