@<TRIPOS>MOLECULE
/home/cewinharhar/GITHUB/reincatalyze/data/processed/docking_pred/2023-Apr-25-2248_maxeplen10_maxtrainstep1000_exh16_gamma099_lrac3e-4_lrcr1e-3/dba3942d2f0306a5a819952336ad453bb769fd78_ligand_2.pdbqt
 12 12 0 0 0
SMALL
GASTEIGER

@<TRIPOS>ATOM
      1  C          7.5510   -1.5610   -1.8950 C.3     1  UNL1        0.1270
      2  C          8.4440   -2.6310   -2.3730 C.2     1  UNL1        0.3030
      3  O          9.3780   -2.3390   -3.1680 O.2     1  UNL1       -0.2520
      4  O          8.2930   -3.9660   -1.9720 O.3     1  UNL1       -0.4810
      5  H          7.7040   -4.1680   -1.1760 H       1  UNL1        0.2960
      6  C          7.5950   -1.4080   -0.3850 C.3     1  UNL1        0.0470
      7  C          6.6620   -0.3440    0.0700 C.2     1  UNL1       -0.0470
      8  C          6.3360    0.7160   -0.7640 C.2     1  UNL1        0.0040
      9  C          6.0840   -0.3420    1.3260 C.2     1  UNL1        0.0040
     10  C          5.4840    1.7210   -0.3690 C.2     1  UNL1        0.0000
     11  C          5.2310    0.6660    1.7210 C.2     1  UNL1        0.0000
     12  C          4.9140    1.7150    0.8880 C.2     1  UNL1        0.0000
@<TRIPOS>BOND
     1     3     2    2
     2     2     4    1
     3     2     1    1
     4     4     5    1
     5     1     6    1
     6     8    10    1
     7     8     7    2
     8     6     7    1
     9    10    12    2
    10     7     9    1
    11    12    11    1
    12     9    11    2
