@<TRIPOS>MOLECULE
/home/cewinharhar/GITHUB/reincatalyze/data/processed/docking_pred/2023-Apr-25-2248_maxeplen10_maxtrainstep1000_exh16_gamma099_lrac3e-4_lrcr1e-3/dba3942d2f0306a5a819952336ad453bb769fd78_ligand_2.pdbqt
 12 12 0 0 0
SMALL
GASTEIGER

@<TRIPOS>ATOM
      1  C          8.3020   -1.7510    1.1950 C.3     1  UNL1        0.1270
      2  C          8.7050   -2.9750    0.4800 C.2     1  UNL1        0.3030
      3  O          9.4560   -3.8050    1.0620 O.2     1  UNL1       -0.2520
      4  O          8.2810   -3.2520   -0.8280 O.3     1  UNL1       -0.4810
      5  H          8.9800   -3.3510   -1.5520 H       1  UNL1        0.2960
      6  C          6.8010   -1.6810    1.4120 C.3     1  UNL1        0.0470
      7  C          6.2450   -0.4090    0.8820 C.2     1  UNL1       -0.0470
      8  C          6.5110   -0.0080   -0.4200 C.2     1  UNL1        0.0040
      9  C          5.4560    0.4370    1.6400 C.2     1  UNL1        0.0040
     10  C          6.0200    1.1690   -0.9370 C.2     1  UNL1        0.0000
     11  C          4.9650    1.6150    1.1210 C.2     1  UNL1        0.0000
     12  C          5.2350    2.0070   -0.1710 C.2     1  UNL1        0.0000
@<TRIPOS>BOND
     1     5     4    1
     2    10     8    1
     3    10    12    2
     4     4     2    1
     5     8     7    2
     6    12    11    1
     7     2     3    2
     8     2     1    1
     9     7     6    1
    10     7     9    1
    11    11     9    2
    12     1     6    1
