@<TRIPOS>MOLECULE
/home/cewinharhar/GITHUB/reincatalyze/data/processed/docking_pred/2023-Apr-25-2248_maxeplen10_maxtrainstep1000_exh16_gamma099_lrac3e-4_lrcr1e-3/dba3942d2f0306a5a819952336ad453bb769fd78_ligand_2.pdbqt
 12 12 0 0 0
SMALL
GASTEIGER

@<TRIPOS>ATOM
      1  C          5.0460    1.7660    0.7350 C.3     1  UNL1        0.1270
      2  C          4.4880    1.1110    1.9300 C.2     1  UNL1        0.3030
      3  O          5.1530    0.2010    2.4970 O.2     1  UNL1       -0.2520
      4  O          3.2400    1.4640    2.4630 O.3     1  UNL1       -0.4810
      5  H          2.4170    1.3390    1.8900 H       1  UNL1        0.2960
      6  C          6.5610    1.8610    0.7860 C.3     1  UNL1        0.0470
      7  C          7.1810    1.0950   -0.3260 C.2     1  UNL1       -0.0470
      8  C          6.4310    0.1960   -1.0710 C.2     1  UNL1        0.0040
      9  C          8.5140    1.2230   -0.6710 C.2     1  UNL1        0.0040
     10  C          6.9780   -0.5350   -2.1000 C.2     1  UNL1        0.0000
     11  C          9.0600    0.4900   -1.7020 C.2     1  UNL1        0.0000
     12  C          8.3100   -0.4010   -2.4360 C.2     1  UNL1        0.0000
@<TRIPOS>BOND
     1    12    10    2
     2    12    11    1
     3    10     8    1
     4    11     9    2
     5     8     7    2
     6     9     7    1
     7     7     6    1
     8     1     6    1
     9     1     2    1
    10     5     4    1
    11     2     4    1
    12     2     3    2
