@<TRIPOS>MOLECULE
/home/cewinharhar/GITHUB/reincatalyze/data/processed/docking_pred/2023-Apr-25-2248_maxeplen10_maxtrainstep1000_exh16_gamma099_lrac3e-4_lrcr1e-3/dba3942d2f0306a5a819952336ad453bb769fd78_ligand_2.pdbqt
 12 12 0 0 0
SMALL
GASTEIGER

@<TRIPOS>ATOM
      1  C          8.4150   -0.6140   -2.2090 C.3     1  UNL1        0.1270
      2  C          8.4510   -1.8980   -2.9320 C.2     1  UNL1        0.3030
      3  O          9.5560   -2.4870   -3.0770 O.2     1  UNL1       -0.2520
      4  O          7.2970   -2.4890   -3.4650 O.3     1  UNL1       -0.4810
      5  H          6.5770   -2.8030   -2.8290 H       1  UNL1        0.2960
      6  C          7.0230   -0.0070   -2.1870 C.3     1  UNL1        0.0470
      7  C          6.4940    0.0620   -0.8000 C.2     1  UNL1       -0.0470
      8  C          5.8550    1.2060   -0.3430 C.2     1  UNL1        0.0040
      9  C          6.6120   -0.9810    0.0990 C.2     1  UNL1        0.0040
     10  C          5.3630    1.3050    0.9380 C.2     1  UNL1        0.0000
     11  C          6.1190   -0.8800    1.3820 C.2     1  UNL1        0.0000
     12  C          5.4880    0.2580    1.8290 C.2     1  UNL1        0.0000
@<TRIPOS>BOND
     1     4     2    1
     2     4     5    1
     3     3     2    2
     4     2     1    1
     5     1     6    1
     6     6     7    1
     7     7     8    2
     8     7     9    1
     9     8    10    1
    10     9    11    2
    11    10    12    2
    12    11    12    1
