MODEL 1
REMARK VINA RESULT:      -7.4      0.000      0.000
REMARK SMILES O=C(O)CCc1ccccc1
REMARK SMILES IDX 4 1 2 2 1 3 3 4 5 6 6 7 7 8 11 9 8 10 10 11 9 12
REMARK H PARENT 3 5
REMARK Flexibility Score: inf
ROOT
ATOM      1  C   UNL     1       8.399  -0.624  -2.179  1.00  0.00     0.127 C 
ENDROOT
BRANCH   1   2
ATOM      2  C   UNL     1       8.436  -1.902  -2.911  1.00  0.00     0.303 C 
ATOM      3  O   UNL     1       9.543  -2.485  -3.071  1.00  0.00    -0.252 OA
BRANCH   2   4
ATOM      4  O   UNL     1       7.280  -2.497  -3.436  1.00  0.00    -0.481 OA
ATOM      5  H   UNL     1       7.083  -2.383  -4.421  1.00  0.00     0.296 HD
ENDBRANCH   2   4
ENDBRANCH   1   2
BRANCH   1   6
ATOM      6  C   UNL     1       7.009  -0.014  -2.159  1.00  0.00     0.047 C 
BRANCH   6   7
ATOM      7  C   UNL     1       6.477   0.053  -0.773  1.00  0.00    -0.047 A 
ATOM      8  C   UNL     1       5.823   1.190  -0.320  1.00  0.00     0.004 A 
ATOM      9  C   UNL     1       6.607  -0.986   0.130  1.00  0.00     0.004 A 
ATOM     10  C   UNL     1       5.328   1.287   0.960  1.00  0.00     0.000 A 
ATOM     11  C   UNL     1       6.110  -0.888   1.412  1.00  0.00     0.000 A 
ATOM     12  C   UNL     1       5.464   0.244   1.854  1.00  0.00     0.000 A 
ENDBRANCH   6   7
ENDBRANCH   1   6
TORSDOF 4
ENDMDL
MODEL 2
REMARK VINA RESULT:      -7.3      0.114      1.724
REMARK SMILES O=C(O)CCc1ccccc1
REMARK SMILES IDX 4 1 2 2 1 3 3 4 5 6 6 7 7 8 11 9 8 10 10 11 9 12
REMARK H PARENT 3 5
REMARK Flexibility Score: inf
ROOT
ATOM      1  C   UNL     1       8.391  -0.668  -2.103  1.00  0.00     0.127 C 
ENDROOT
BRANCH   1   2
ATOM      2  C   UNL     1       8.390  -1.918  -2.885  1.00  0.00     0.303 C 
ATOM      3  O   UNL     1       7.289  -2.409  -3.252  1.00  0.00    -0.252 OA
BRANCH   2   4
ATOM      4  O   UNL     1       9.575  -2.580  -3.237  1.00  0.00    -0.481 OA
ATOM      5  H   UNL     1      10.451  -2.082  -3.153  1.00  0.00     0.296 HD
ENDBRANCH   2   4
ENDBRANCH   1   2
BRANCH   1   6
ATOM      6  C   UNL     1       7.042   0.028  -2.132  1.00  0.00     0.047 C 
BRANCH   6   7
ATOM      7  C   UNL     1       6.474   0.146  -0.764  1.00  0.00    -0.047 A 
ATOM      8  C   UNL     1       6.618  -0.885   0.153  1.00  0.00     0.004 A 
ATOM      9  C   UNL     1       5.776   1.261  -0.337  1.00  0.00     0.004 A 
ATOM     10  C   UNL     1       6.095  -0.810   1.424  1.00  0.00     0.000 A 
ATOM     11  C   UNL     1       5.252   1.334   0.936  1.00  0.00     0.000 A 
ATOM     12  C   UNL     1       5.398   0.306   1.840  1.00  0.00     0.000 A 
ENDBRANCH   6   7
ENDBRANCH   1   6
TORSDOF 4
ENDMDL
MODEL 3
REMARK VINA RESULT:      -7.1      0.682      1.900
REMARK SMILES O=C(O)CCc1ccccc1
REMARK SMILES IDX 4 1 2 2 1 3 3 4 5 6 6 7 7 8 11 9 8 10 10 11 9 12
REMARK H PARENT 3 5
REMARK Flexibility Score: inf
ROOT
ATOM      1  C   UNL     1       8.300  -0.942  -1.836  1.00  0.00     0.127 C 
ENDROOT
BRANCH   1   2
ATOM      2  C   UNL     1       8.350  -2.014  -2.845  1.00  0.00     0.303 C 
ATOM      3  O   UNL     1       7.271  -2.442  -3.338  1.00  0.00    -0.252 OA
BRANCH   2   4
ATOM      4  O   UNL     1       9.559  -2.576  -3.280  1.00  0.00    -0.481 OA
ATOM      5  H   UNL     1      10.426  -2.176  -2.946  1.00  0.00     0.296 HD
ENDBRANCH   2   4
ENDBRANCH   1   2
BRANCH   1   6
ATOM      6  C   UNL     1       7.600  -1.384  -0.563  1.00  0.00     0.047 C 
BRANCH   6   7
ATOM      7  C   UNL     1       6.690  -0.322  -0.059  1.00  0.00    -0.047 A 
ATOM      8  C   UNL     1       6.175  -0.384   1.228  1.00  0.00     0.004 A 
ATOM      9  C   UNL     1       6.304   0.760  -0.829  1.00  0.00     0.004 A 
ATOM     10  C   UNL     1       5.322   0.577   1.720  1.00  0.00     0.000 A 
ATOM     11  C   UNL     1       5.449   1.722  -0.334  1.00  0.00     0.000 A 
ATOM     12  C   UNL     1       4.941   1.653   0.943  1.00  0.00     0.000 A 
ENDBRANCH   6   7
ENDBRANCH   1   6
TORSDOF 4
ENDMDL
MODEL 4
REMARK VINA RESULT:      -6.9      3.400      5.083
REMARK SMILES O=C(O)CCc1ccccc1
REMARK SMILES IDX 4 1 2 2 1 3 3 4 5 6 6 7 7 8 11 9 8 10 10 11 9 12
REMARK H PARENT 3 5
REMARK Flexibility Score: inf
ROOT
ATOM      1  C   UNL     1       4.983   1.803   0.729  1.00  0.00     0.127 C 
ENDROOT
BRANCH   1   2
ATOM      2  C   UNL     1       4.467   1.115   1.926  1.00  0.00     0.303 C 
ATOM      3  O   UNL     1       5.161   0.206   2.456  1.00  0.00    -0.252 OA
BRANCH   2   4
ATOM      4  O   UNL     1       3.228   1.438   2.499  1.00  0.00    -0.481 OA
ATOM      5  H   UNL     1       2.397   0.988   2.140  1.00  0.00     0.296 HD
ENDBRANCH   2   4
ENDBRANCH   1   2
BRANCH   1   6
ATOM      6  C   UNL     1       6.495   1.931   0.748  1.00  0.00     0.047 C 
BRANCH   6   7
ATOM      7  C   UNL     1       7.112   1.122  -0.336  1.00  0.00    -0.047 A 
ATOM      8  C   UNL     1       8.470   1.218  -0.605  1.00  0.00     0.004 A 
ATOM      9  C   UNL     1       6.384   0.254  -1.128  1.00  0.00     0.004 A 
ATOM     10  C   UNL     1       9.068   0.490  -1.608  1.00  0.00     0.000 A 
ATOM     11  C   UNL     1       6.985  -0.474  -2.133  1.00  0.00     0.000 A 
ATOM     12  C   UNL     1       8.332  -0.373  -2.395  1.00  0.00     0.000 A 
ENDBRANCH   6   7
ENDBRANCH   1   6
TORSDOF 4
ENDMDL
MODEL 5
REMARK VINA RESULT:      -6.7      2.031      2.757
REMARK SMILES O=C(O)CCc1ccccc1
REMARK SMILES IDX 4 1 2 2 1 3 3 4 5 6 6 7 7 8 11 9 8 10 10 11 9 12
REMARK H PARENT 3 5
REMARK Flexibility Score: inf
ROOT
ATOM      1  C   UNL     1       7.968  -2.284   0.715  1.00  0.00     0.127 C 
ENDROOT
BRANCH   1   2
ATOM      2  C   UNL     1       8.781  -3.440   0.298  1.00  0.00     0.303 C 
ATOM      3  O   UNL     1       9.646  -3.899   1.093  1.00  0.00    -0.252 OA
BRANCH   2   4
ATOM      4  O   UNL     1       8.626  -4.050  -0.955  1.00  0.00    -0.481 OA
ATOM      5  H   UNL     1       8.007  -4.846  -1.032  1.00  0.00     0.296 HD
ENDBRANCH   2   4
ENDBRANCH   1   2
BRANCH   1   6
ATOM      6  C   UNL     1       7.453  -1.487  -0.470  1.00  0.00     0.047 C 
BRANCH   6   7
ATOM      7  C   UNL     1       6.601  -0.355  -0.020  1.00  0.00    -0.047 A 
ATOM      8  C   UNL     1       6.064  -0.338   1.259  1.00  0.00     0.004 A 
ATOM      9  C   UNL     1       6.291   0.718  -0.836  1.00  0.00     0.004 A 
ATOM     10  C   UNL     1       5.263   0.690   1.701  1.00  0.00     0.000 A 
ATOM     11  C   UNL     1       5.489   1.747  -0.391  1.00  0.00     0.000 A 
ATOM     12  C   UNL     1       4.960   1.757   0.879  1.00  0.00     0.000 A 
ENDBRANCH   6   7
ENDBRANCH   1   6
TORSDOF 4
ENDMDL
