@<TRIPOS>MOLECULE
/home/cewinharhar/GITHUB/reincatalyze/data/processed/docking_pred/2023-Apr-25-2248_maxeplen10_maxtrainstep1000_exh16_gamma099_lrac3e-4_lrcr1e-3/dca47ac415302ce9f1313af6aebf6be1e2794cfe_ligand_2.pdbqt
 12 12 0 0 0
SMALL
GASTEIGER

@<TRIPOS>ATOM
      1  C          4.9830    1.8030    0.7290 C.3     1  UNL1        0.1270
      2  C          4.4670    1.1150    1.9260 C.2     1  UNL1        0.3030
      3  O          5.1610    0.2060    2.4560 O.2     1  UNL1       -0.2520
      4  O          3.2280    1.4380    2.4990 O.3     1  UNL1       -0.4810
      5  H          2.3970    0.9880    2.1400 H       1  UNL1        0.2960
      6  C          6.4950    1.9310    0.7480 C.3     1  UNL1        0.0470
      7  C          7.1120    1.1220   -0.3360 C.2     1  UNL1       -0.0470
      8  C          8.4700    1.2180   -0.6050 C.2     1  UNL1        0.0040
      9  C          6.3840    0.2540   -1.1280 C.2     1  UNL1        0.0040
     10  C          9.0680    0.4900   -1.6080 C.2     1  UNL1        0.0000
     11  C          6.9850   -0.4740   -2.1330 C.2     1  UNL1        0.0000
     12  C          8.3320   -0.3730   -2.3950 C.2     1  UNL1        0.0000
@<TRIPOS>BOND
     1    12    11    2
     2    12    10    1
     3    11     9    1
     4    10     8    2
     5     9     7    2
     6     8     7    1
     7     7     6    1
     8     1     6    1
     9     1     2    1
    10     2     3    2
    11     2     4    1
    12     5     4    1
