@<TRIPOS>MOLECULE
/home/cewinharhar/GITHUB/reincatalyze/data/processed/docking_pred/2023-Apr-25-2248_maxeplen10_maxtrainstep1000_exh16_gamma099_lrac3e-4_lrcr1e-3/dca47ac415302ce9f1313af6aebf6be1e2794cfe_ligand_2.pdbqt
 12 12 0 0 0
SMALL
GASTEIGER

@<TRIPOS>ATOM
      1  C          7.9680   -2.2840    0.7150 C.3     1  UNL1        0.1270
      2  C          8.7810   -3.4400    0.2980 C.2     1  UNL1        0.3030
      3  O          9.6460   -3.8990    1.0930 O.2     1  UNL1       -0.2520
      4  O          8.6260   -4.0500   -0.9550 O.3     1  UNL1       -0.4810
      5  H          8.0070   -4.8460   -1.0320 H       1  UNL1        0.2960
      6  C          7.4530   -1.4870   -0.4700 C.3     1  UNL1        0.0470
      7  C          6.6010   -0.3550   -0.0200 C.2     1  UNL1       -0.0470
      8  C          6.0640   -0.3380    1.2590 C.2     1  UNL1        0.0040
      9  C          6.2910    0.7180   -0.8360 C.2     1  UNL1        0.0040
     10  C          5.2630    0.6900    1.7010 C.2     1  UNL1        0.0000
     11  C          5.4890    1.7470   -0.3910 C.2     1  UNL1        0.0000
     12  C          4.9600    1.7570    0.8790 C.2     1  UNL1        0.0000
@<TRIPOS>BOND
     1     5     4    1
     2     4     2    1
     3     9    11    1
     4     9     7    2
     5     6     7    1
     6     6     1    1
     7    11    12    2
     8     7     8    1
     9     2     1    1
    10     2     3    2
    11    12    10    1
    12     8    10    2
