@<TRIPOS>MOLECULE
/home/cewinharhar/GITHUB/reincatalyze/data/processed/docking_pred/2023-Apr-25-2248_maxeplen10_maxtrainstep1000_exh16_gamma099_lrac3e-4_lrcr1e-3/dca47ac415302ce9f1313af6aebf6be1e2794cfe_ligand_2.pdbqt
 12 12 0 0 0
SMALL
GASTEIGER

@<TRIPOS>ATOM
      1  C          8.3000   -0.9420   -1.8360 C.3     1  UNL1        0.1270
      2  C          8.3500   -2.0140   -2.8450 C.2     1  UNL1        0.3030
      3  O          7.2710   -2.4420   -3.3380 O.2     1  UNL1       -0.2520
      4  O          9.5590   -2.5760   -3.2800 O.3     1  UNL1       -0.4810
      5  H         10.4260   -2.1760   -2.9460 H       1  UNL1        0.2960
      6  C          7.6000   -1.3840   -0.5630 C.3     1  UNL1        0.0470
      7  C          6.6900   -0.3220   -0.0590 C.2     1  UNL1       -0.0470
      8  C          6.1750   -0.3840    1.2280 C.2     1  UNL1        0.0040
      9  C          6.3040    0.7600   -0.8290 C.2     1  UNL1        0.0040
     10  C          5.3220    0.5770    1.7200 C.2     1  UNL1        0.0000
     11  C          5.4490    1.7220   -0.3340 C.2     1  UNL1        0.0000
     12  C          4.9410    1.6530    0.9430 C.2     1  UNL1        0.0000
@<TRIPOS>BOND
     1     3     2    2
     2     4     5    1
     3     4     2    1
     4     2     1    1
     5     1     6    1
     6     9    11    1
     7     9     7    2
     8     6     7    1
     9    11    12    2
    10     7     8    1
    11    12    10    1
    12     8    10    2
