@<TRIPOS>MOLECULE
/home/cewinharhar/GITHUB/reincatalyze/data/processed/docking_pred/2023-Apr-25-2248_maxeplen10_maxtrainstep1000_exh16_gamma099_lrac3e-4_lrcr1e-3/dca47ac415302ce9f1313af6aebf6be1e2794cfe_ligand_2.pdbqt
 12 12 0 0 0
SMALL
GASTEIGER

@<TRIPOS>ATOM
      1  C          8.3910   -0.6680   -2.1030 C.3     1  UNL1        0.1270
      2  C          8.3900   -1.9180   -2.8850 C.2     1  UNL1        0.3030
      3  O          7.2890   -2.4090   -3.2520 O.2     1  UNL1       -0.2520
      4  O          9.5750   -2.5800   -3.2370 O.3     1  UNL1       -0.4810
      5  H         10.4510   -2.0820   -3.1530 H       1  UNL1        0.2960
      6  C          7.0420    0.0280   -2.1320 C.3     1  UNL1        0.0470
      7  C          6.4740    0.1460   -0.7640 C.2     1  UNL1       -0.0470
      8  C          6.6180   -0.8850    0.1530 C.2     1  UNL1        0.0040
      9  C          5.7760    1.2610   -0.3370 C.2     1  UNL1        0.0040
     10  C          6.0950   -0.8100    1.4240 C.2     1  UNL1        0.0000
     11  C          5.2520    1.3340    0.9360 C.2     1  UNL1        0.0000
     12  C          5.3980    0.3060    1.8400 C.2     1  UNL1        0.0000
@<TRIPOS>BOND
     1     3     2    2
     2     4     5    1
     3     4     2    1
     4     2     1    1
     5     6     1    1
     6     6     7    1
     7     7     9    2
     8     7     8    1
     9     9    11    1
    10     8    10    2
    11    11    12    2
    12    10    12    1
