@<TRIPOS>MOLECULE
/home/cewinharhar/GITHUB/reincatalyze/data/processed/docking_pred/2023-Apr-25-2248_maxeplen10_maxtrainstep1000_exh16_gamma099_lrac3e-4_lrcr1e-3/dca47ac415302ce9f1313af6aebf6be1e2794cfe_ligand_2.pdbqt
 12 12 0 0 0
SMALL
GASTEIGER

@<TRIPOS>ATOM
      1  C          8.3990   -0.6240   -2.1790 C.3     1  UNL1        0.1270
      2  C          8.4360   -1.9020   -2.9110 C.2     1  UNL1        0.3030
      3  O          9.5430   -2.4850   -3.0710 O.2     1  UNL1       -0.2520
      4  O          7.2800   -2.4970   -3.4360 O.3     1  UNL1       -0.4810
      5  H          7.0830   -2.3830   -4.4210 H       1  UNL1        0.2960
      6  C          7.0090   -0.0140   -2.1590 C.3     1  UNL1        0.0470
      7  C          6.4770    0.0530   -0.7730 C.2     1  UNL1       -0.0470
      8  C          5.8230    1.1900   -0.3200 C.2     1  UNL1        0.0040
      9  C          6.6070   -0.9860    0.1300 C.2     1  UNL1        0.0040
     10  C          5.3280    1.2870    0.9600 C.2     1  UNL1        0.0000
     11  C          6.1100   -0.8880    1.4120 C.2     1  UNL1        0.0000
     12  C          5.4640    0.2440    1.8540 C.2     1  UNL1        0.0000
@<TRIPOS>BOND
     1     5     4    1
     2     4     2    1
     3     3     2    2
     4     2     1    1
     5     1     6    1
     6     6     7    1
     7     7     8    2
     8     7     9    1
     9     8    10    1
    10     9    11    2
    11    10    12    2
    12    11    12    1
