@<TRIPOS>MOLECULE
/home/cewinharhar/GITHUB/reincatalyze/data/processed/docking_pred/2023-Apr-25-2248_maxeplen10_maxtrainstep1000_exh16_gamma099_lrac3e-4_lrcr1e-3/dcca543849eb83a4cf97fda16a0578d2b97a91da_ligand_2.pdbqt
 12 12 0 0 0
SMALL
GASTEIGER

@<TRIPOS>ATOM
      1  C          8.0400   -0.2460   -2.4590 C.3     1  UNL1        0.1270
      2  C          8.0420   -1.7190   -2.5090 C.2     1  UNL1        0.3030
      3  O          8.7310   -2.3600   -1.6700 O.2     1  UNL1       -0.2520
      4  O          7.3020   -2.4360   -3.4600 O.3     1  UNL1       -0.4810
      5  H          7.2200   -3.4380   -3.3540 H       1  UNL1        0.2960
      6  C          8.5290    0.2830   -1.1220 C.3     1  UNL1        0.0470
      7  C          7.4070    0.4080   -0.1560 C.2     1  UNL1       -0.0470
      8  C          7.3660   -0.3770    0.9870 C.2     1  UNL1        0.0040
      9  C          6.3560    1.2880   -0.3410 C.2     1  UNL1        0.0040
     10  C          6.3350   -0.2910    1.8950 C.2     1  UNL1        0.0000
     11  C          5.3240    1.3720    0.5700 C.2     1  UNL1        0.0000
     12  C          5.2900    0.5890    1.7010 C.2     1  UNL1        0.0000
@<TRIPOS>BOND
     1     4     5    1
     2     4     2    1
     3     2     1    1
     4     2     3    2
     5     1     6    1
     6     6     7    1
     7     9     7    2
     8     9    11    1
     9     7     8    1
    10    11    12    2
    11     8    10    2
    12    12    10    1
