@<TRIPOS>MOLECULE
/home/cewinharhar/GITHUB/reincatalyze/data/processed/docking_pred/2023-Apr-25-2248_maxeplen10_maxtrainstep1000_exh16_gamma099_lrac3e-4_lrcr1e-3/dcca543849eb83a4cf97fda16a0578d2b97a91da_ligand_2.pdbqt
 12 12 0 0 0
SMALL
GASTEIGER

@<TRIPOS>ATOM
      1  C          8.4110   -0.6550   -2.1180 C.3     1  UNL1        0.1270
      2  C          8.4100   -1.9110   -2.8890 C.2     1  UNL1        0.3030
      3  O          7.3070   -2.4230   -3.2230 O.2     1  UNL1       -0.2520
      4  O          9.5950   -2.5570   -3.2670 O.3     1  UNL1       -0.4810
      5  H         10.4050   -2.4700   -2.6690 H       1  UNL1        0.2960
      6  C          7.0560    0.0290   -2.1320 C.3     1  UNL1        0.0470
      7  C          6.4910    0.1230   -0.7600 C.2     1  UNL1       -0.0470
      8  C          6.6270   -0.9300    0.1340 C.2     1  UNL1        0.0040
      9  C          5.8050    1.2340   -0.3080 C.2     1  UNL1        0.0040
     10  C          6.1070   -0.8780    1.4070 C.2     1  UNL1        0.0000
     11  C          5.2850    1.2840    0.9680 C.2     1  UNL1        0.0000
     12  C          5.4220    0.2360    1.8490 C.2     1  UNL1        0.0000
@<TRIPOS>BOND
     1     4     2    1
     2     4     5    1
     3     3     2    2
     4     2     1    1
     5     6     1    1
     6     6     7    1
     7     7     9    2
     8     7     8    1
     9     9    11    1
    10     8    10    2
    11    11    12    2
    12    10    12    1
