@<TRIPOS>MOLECULE
/home/cewinharhar/GITHUB/reincatalyze/data/processed/docking_pred/2023-Apr-25-2248_maxeplen10_maxtrainstep1000_exh16_gamma099_lrac3e-4_lrcr1e-3/dcca543849eb83a4cf97fda16a0578d2b97a91da_ligand_2.pdbqt
 12 12 0 0 0
SMALL
GASTEIGER

@<TRIPOS>ATOM
      1  C          8.2080   -1.0400   -1.7750 C.3     1  UNL1        0.1270
      2  C          8.3660   -2.0520   -2.8340 C.2     1  UNL1        0.3030
      3  O          9.5180   -2.4970   -3.0890 O.2     1  UNL1       -0.2520
      4  O          7.2770   -2.5400   -3.5700 O.3     1  UNL1       -0.4810
      5  H          7.4410   -2.8810   -4.5080 H       1  UNL1        0.2960
      6  C          7.2870   -1.5120   -0.6640 C.3     1  UNL1        0.0470
      7  C          6.4970   -0.3810   -0.1110 C.2     1  UNL1       -0.0470
      8  C          6.2150    0.7320   -0.8890 C.2     1  UNL1        0.0040
      9  C          6.0150   -0.3680    1.1850 C.2     1  UNL1        0.0040
     10  C          5.4950    1.8000   -0.4040 C.2     1  UNL1        0.0000
     11  C          5.2940    0.7020    1.6700 C.2     1  UNL1        0.0000
     12  C          5.0190    1.8040    0.8920 C.2     1  UNL1        0.0000
@<TRIPOS>BOND
     1     5     4    1
     2     4     2    1
     3     3     2    2
     4     2     1    1
     5     1     6    1
     6     8    10    1
     7     8     7    2
     8     6     7    1
     9    10    12    2
    10     7     9    1
    11    12    11    1
    12     9    11    2
