@<TRIPOS>MOLECULE
/home/cewinharhar/GITHUB/reincatalyze/data/processed/docking_pred/2023-Apr-25-2248_maxeplen10_maxtrainstep1000_exh16_gamma099_lrac3e-4_lrcr1e-3/dcca543849eb83a4cf97fda16a0578d2b97a91da_ligand_2.pdbqt
 12 12 0 0 0
SMALL
GASTEIGER

@<TRIPOS>ATOM
      1  C          8.4290   -0.6130   -2.1940 C.3     1  UNL1        0.1270
      2  C          8.4560   -1.9100   -2.8940 C.2     1  UNL1        0.3030
      3  O          9.5580   -2.5070   -3.0330 O.2     1  UNL1       -0.2520
      4  O          7.2970   -2.5040   -3.4130 O.3     1  UNL1       -0.4810
      5  H          6.9010   -2.1300   -4.2640 H       1  UNL1        0.2960
      6  C          7.0440    0.0100   -2.1950 C.3     1  UNL1        0.0470
      7  C          6.4970    0.0950   -0.8150 C.2     1  UNL1       -0.0470
      8  C          5.8460    1.2410   -0.3820 C.2     1  UNL1        0.0040
      9  C          6.6110   -0.9350    0.1000 C.2     1  UNL1        0.0040
     10  C          5.3380    1.3550    0.8920 C.2     1  UNL1        0.0000
     11  C          6.1010   -0.8200    1.3750 C.2     1  UNL1        0.0000
     12  C          5.4580    0.3200    1.7980 C.2     1  UNL1        0.0000
@<TRIPOS>BOND
     1     5     4    1
     2     4     2    1
     3     3     2    2
     4     2     1    1
     5     6     1    1
     6     6     7    1
     7     7     8    2
     8     7     9    1
     9     8    10    1
    10     9    11    2
    11    10    12    2
    12    11    12    1
