@<TRIPOS>MOLECULE
/home/cewinharhar/GITHUB/reincatalyze/data/processed/docking_pred/2023-Apr-25-2248_maxeplen10_maxtrainstep1000_exh16_gamma099_lrac3e-4_lrcr1e-3/dcca543849eb83a4cf97fda16a0578d2b97a91da_ligand_2.pdbqt
 12 12 0 0 0
SMALL
GASTEIGER

@<TRIPOS>ATOM
      1  C          5.0000    1.7730    0.7170 C.3     1  UNL1        0.1270
      2  C          4.4720    1.1140    1.9240 C.2     1  UNL1        0.3030
      3  O          5.1580    0.2140    2.4800 O.2     1  UNL1       -0.2520
      4  O          3.2300    1.4540    2.4800 O.3     1  UNL1       -0.4810
      5  H          3.0490    1.2110    3.4440 H       1  UNL1        0.2960
      6  C          6.5110    1.9140    0.7540 C.3     1  UNL1        0.0470
      7  C          7.1470    1.1250   -0.3330 C.2     1  UNL1       -0.0470
      8  C          6.4020    0.2250   -1.0830 C.2     1  UNL1        0.0040
      9  C          8.4890    1.2310   -0.6480 C.2     1  UNL1        0.0040
     10  C          6.9630   -0.5280   -2.0890 C.2     1  UNL1        0.0000
     11  C          9.0500    0.4760   -1.6560 C.2     1  UNL1        0.0000
     12  C          8.3050   -0.4150   -2.3950 C.2     1  UNL1        0.0000
@<TRIPOS>BOND
     1    12    10    2
     2    12    11    1
     3    10     8    1
     4    11     9    2
     5     8     7    2
     6     9     7    1
     7     7     6    1
     8     1     6    1
     9     1     2    1
    10     2     3    2
    11     2     4    1
    12     4     5    1
