MODEL 1
REMARK VINA RESULT:      -7.2      0.000      0.000
REMARK SMILES O=C(O)CCc1ccccc1
REMARK SMILES IDX 4 1 2 2 1 3 3 4 5 6 6 7 7 8 11 9 8 10 10 11 9 12
REMARK H PARENT 3 5
REMARK Flexibility Score: inf
ROOT
ATOM      1  C   UNL     1       8.429  -0.613  -2.194  1.00  0.00     0.127 C 
ENDROOT
BRANCH   1   2
ATOM      2  C   UNL     1       8.456  -1.910  -2.894  1.00  0.00     0.303 C 
ATOM      3  O   UNL     1       9.558  -2.507  -3.033  1.00  0.00    -0.252 OA
BRANCH   2   4
ATOM      4  O   UNL     1       7.297  -2.504  -3.413  1.00  0.00    -0.481 OA
ATOM      5  H   UNL     1       6.901  -2.130  -4.264  1.00  0.00     0.296 HD
ENDBRANCH   2   4
ENDBRANCH   1   2
BRANCH   1   6
ATOM      6  C   UNL     1       7.044   0.010  -2.195  1.00  0.00     0.047 C 
BRANCH   6   7
ATOM      7  C   UNL     1       6.497   0.095  -0.815  1.00  0.00    -0.047 A 
ATOM      8  C   UNL     1       5.846   1.241  -0.382  1.00  0.00     0.004 A 
ATOM      9  C   UNL     1       6.611  -0.935   0.100  1.00  0.00     0.004 A 
ATOM     10  C   UNL     1       5.338   1.355   0.892  1.00  0.00     0.000 A 
ATOM     11  C   UNL     1       6.101  -0.820   1.375  1.00  0.00     0.000 A 
ATOM     12  C   UNL     1       5.458   0.320   1.798  1.00  0.00     0.000 A 
ENDBRANCH   6   7
ENDBRANCH   1   6
TORSDOF 4
ENDMDL
MODEL 2
REMARK VINA RESULT:      -7.2      0.120      1.723
REMARK SMILES O=C(O)CCc1ccccc1
REMARK SMILES IDX 4 1 2 2 1 3 3 4 5 6 6 7 7 8 11 9 8 10 10 11 9 12
REMARK H PARENT 3 5
REMARK Flexibility Score: inf
ROOT
ATOM      1  C   UNL     1       8.411  -0.655  -2.118  1.00  0.00     0.127 C 
ENDROOT
BRANCH   1   2
ATOM      2  C   UNL     1       8.410  -1.911  -2.889  1.00  0.00     0.303 C 
ATOM      3  O   UNL     1       7.307  -2.423  -3.223  1.00  0.00    -0.252 OA
BRANCH   2   4
ATOM      4  O   UNL     1       9.595  -2.557  -3.267  1.00  0.00    -0.481 OA
ATOM      5  H   UNL     1      10.405  -2.470  -2.669  1.00  0.00     0.296 HD
ENDBRANCH   2   4
ENDBRANCH   1   2
BRANCH   1   6
ATOM      6  C   UNL     1       7.056   0.029  -2.132  1.00  0.00     0.047 C 
BRANCH   6   7
ATOM      7  C   UNL     1       6.491   0.123  -0.760  1.00  0.00    -0.047 A 
ATOM      8  C   UNL     1       6.627  -0.930   0.134  1.00  0.00     0.004 A 
ATOM      9  C   UNL     1       5.805   1.234  -0.308  1.00  0.00     0.004 A 
ATOM     10  C   UNL     1       6.107  -0.878   1.407  1.00  0.00     0.000 A 
ATOM     11  C   UNL     1       5.285   1.284   0.968  1.00  0.00     0.000 A 
ATOM     12  C   UNL     1       5.422   0.236   1.849  1.00  0.00     0.000 A 
ENDBRANCH   6   7
ENDBRANCH   1   6
TORSDOF 4
ENDMDL
MODEL 3
REMARK VINA RESULT:      -7.1      0.683      1.228
REMARK SMILES O=C(O)CCc1ccccc1
REMARK SMILES IDX 4 1 2 2 1 3 3 4 5 6 6 7 7 8 11 9 8 10 10 11 9 12
REMARK H PARENT 3 5
REMARK Flexibility Score: inf
ROOT
ATOM      1  C   UNL     1       8.208  -1.040  -1.775  1.00  0.00     0.127 C 
ENDROOT
BRANCH   1   2
ATOM      2  C   UNL     1       8.366  -2.052  -2.834  1.00  0.00     0.303 C 
ATOM      3  O   UNL     1       9.518  -2.497  -3.089  1.00  0.00    -0.252 OA
BRANCH   2   4
ATOM      4  O   UNL     1       7.277  -2.540  -3.570  1.00  0.00    -0.481 OA
ATOM      5  H   UNL     1       7.441  -2.881  -4.508  1.00  0.00     0.296 HD
ENDBRANCH   2   4
ENDBRANCH   1   2
BRANCH   1   6
ATOM      6  C   UNL     1       7.287  -1.512  -0.664  1.00  0.00     0.047 C 
BRANCH   6   7
ATOM      7  C   UNL     1       6.497  -0.381  -0.111  1.00  0.00    -0.047 A 
ATOM      8  C   UNL     1       6.215   0.732  -0.889  1.00  0.00     0.004 A 
ATOM      9  C   UNL     1       6.015  -0.368   1.185  1.00  0.00     0.004 A 
ATOM     10  C   UNL     1       5.495   1.800  -0.404  1.00  0.00     0.000 A 
ATOM     11  C   UNL     1       5.294   0.702   1.670  1.00  0.00     0.000 A 
ATOM     12  C   UNL     1       5.019   1.804   0.892  1.00  0.00     0.000 A 
ENDBRANCH   6   7
ENDBRANCH   1   6
TORSDOF 4
ENDMDL
MODEL 4
REMARK VINA RESULT:      -6.8      3.393      5.081
REMARK SMILES O=C(O)CCc1ccccc1
REMARK SMILES IDX 4 1 2 2 1 3 3 4 5 6 6 7 7 8 11 9 8 10 10 11 9 12
REMARK H PARENT 3 5
REMARK Flexibility Score: inf
ROOT
ATOM      1  C   UNL     1       5.000   1.773   0.717  1.00  0.00     0.127 C 
ENDROOT
BRANCH   1   2
ATOM      2  C   UNL     1       4.472   1.114   1.924  1.00  0.00     0.303 C 
ATOM      3  O   UNL     1       5.158   0.214   2.480  1.00  0.00    -0.252 OA
BRANCH   2   4
ATOM      4  O   UNL     1       3.230   1.454   2.480  1.00  0.00    -0.481 OA
ATOM      5  H   UNL     1       3.049   1.211   3.444  1.00  0.00     0.296 HD
ENDBRANCH   2   4
ENDBRANCH   1   2
BRANCH   1   6
ATOM      6  C   UNL     1       6.511   1.914   0.754  1.00  0.00     0.047 C 
BRANCH   6   7
ATOM      7  C   UNL     1       7.147   1.125  -0.333  1.00  0.00    -0.047 A 
ATOM      8  C   UNL     1       6.402   0.225  -1.083  1.00  0.00     0.004 A 
ATOM      9  C   UNL     1       8.489   1.231  -0.648  1.00  0.00     0.004 A 
ATOM     10  C   UNL     1       6.963  -0.528  -2.089  1.00  0.00     0.000 A 
ATOM     11  C   UNL     1       9.050   0.476  -1.656  1.00  0.00     0.000 A 
ATOM     12  C   UNL     1       8.305  -0.415  -2.395  1.00  0.00     0.000 A 
ENDBRANCH   6   7
ENDBRANCH   1   6
TORSDOF 4
ENDMDL
MODEL 5
REMARK VINA RESULT:      -6.7      0.922      1.677
REMARK SMILES O=C(O)CCc1ccccc1
REMARK SMILES IDX 4 1 2 2 1 3 3 4 5 6 6 7 7 8 11 9 8 10 10 11 9 12
REMARK H PARENT 3 5
REMARK Flexibility Score: inf
ROOT
ATOM      1  C   UNL     1       8.040  -0.246  -2.459  1.00  0.00     0.127 C 
ENDROOT
BRANCH   1   2
ATOM      2  C   UNL     1       8.042  -1.719  -2.509  1.00  0.00     0.303 C 
ATOM      3  O   UNL     1       8.731  -2.360  -1.670  1.00  0.00    -0.252 OA
BRANCH   2   4
ATOM      4  O   UNL     1       7.302  -2.436  -3.460  1.00  0.00    -0.481 OA
ATOM      5  H   UNL     1       7.220  -3.438  -3.354  1.00  0.00     0.296 HD
ENDBRANCH   2   4
ENDBRANCH   1   2
BRANCH   1   6
ATOM      6  C   UNL     1       8.529   0.283  -1.122  1.00  0.00     0.047 C 
BRANCH   6   7
ATOM      7  C   UNL     1       7.407   0.408  -0.156  1.00  0.00    -0.047 A 
ATOM      8  C   UNL     1       7.366  -0.377   0.987  1.00  0.00     0.004 A 
ATOM      9  C   UNL     1       6.356   1.288  -0.341  1.00  0.00     0.004 A 
ATOM     10  C   UNL     1       6.335  -0.291   1.895  1.00  0.00     0.000 A 
ATOM     11  C   UNL     1       5.324   1.372   0.570  1.00  0.00     0.000 A 
ATOM     12  C   UNL     1       5.290   0.589   1.701  1.00  0.00     0.000 A 
ENDBRANCH   6   7
ENDBRANCH   1   6
TORSDOF 4
ENDMDL
