@<TRIPOS>MOLECULE
/home/cewinharhar/GITHUB/reincatalyze/data/processed/docking_pred/2023-Apr-25-2248_maxeplen10_maxtrainstep1000_exh16_gamma099_lrac3e-4_lrcr1e-3/dd626561b0241c753f5aa586a778cbbb50e2da15_ligand_2.pdbqt
 12 12 0 0 0
SMALL
GASTEIGER

@<TRIPOS>ATOM
      1  C          8.2010   -1.6750    1.1410 C.3     1  UNL1        0.1270
      2  C          8.5290   -2.8620    0.3310 C.2     1  UNL1        0.3030
      3  O          9.2050   -3.7900    0.8520 O.2     1  UNL1       -0.2520
      4  O          8.1130   -2.9960   -1.0010 O.3     1  UNL1       -0.4810
      5  H          7.5080   -3.7690   -1.2430 H       1  UNL1        0.2960
      6  C          6.7110   -1.5570    1.4090 C.3     1  UNL1        0.0470
      7  C          6.1700   -0.2860    0.8620 C.2     1  UNL1       -0.0470
      8  C          6.4270    0.0860   -0.4500 C.2     1  UNL1        0.0040
      9  C          5.4040    0.5870    1.6130 C.2     1  UNL1        0.0040
     10  C          5.9490    1.2610   -0.9830 C.2     1  UNL1        0.0000
     11  C          4.9270    1.7640    1.0780 C.2     1  UNL1        0.0000
     12  C          5.1870    2.1260   -0.2240 C.2     1  UNL1        0.0000
@<TRIPOS>BOND
     1     5     4    1
     2     4     2    1
     3    10     8    1
     4    10    12    2
     5     8     7    2
     6    12    11    1
     7     2     3    2
     8     2     1    1
     9     7     6    1
    10     7     9    1
    11    11     9    2
    12     1     6    1
