@<TRIPOS>MOLECULE
/home/cewinharhar/GITHUB/reincatalyze/data/processed/docking_pred/2023-Apr-25-2248_maxeplen10_maxtrainstep1000_exh16_gamma099_lrac3e-4_lrcr1e-3/dd626561b0241c753f5aa586a778cbbb50e2da15_ligand_2.pdbqt
 12 12 0 0 0
SMALL
GASTEIGER

@<TRIPOS>ATOM
      1  C          4.9890    1.7850    0.7330 C.3     1  UNL1        0.1270
      2  C          4.4620    1.1140    1.9340 C.2     1  UNL1        0.3030
      3  O          5.1480    0.2080    2.4800 O.2     1  UNL1       -0.2520
      4  O          3.2210    1.4500    2.4950 O.3     1  UNL1       -0.4810
      5  H          3.0830    2.3920    2.8360 H       1  UNL1        0.2960
      6  C          6.5000    1.9220    0.7680 C.3     1  UNL1        0.0470
      7  C          7.1330    1.1270   -0.3160 C.2     1  UNL1       -0.0470
      8  C          6.3850    0.2280   -1.0630 C.2     1  UNL1        0.0040
      9  C          8.4760    1.2260   -0.6310 C.2     1  UNL1        0.0040
     10  C          6.9440   -0.5300   -2.0670 C.2     1  UNL1        0.0000
     11  C          9.0340    0.4660   -1.6370 C.2     1  UNL1        0.0000
     12  C          8.2850   -0.4240   -2.3720 C.2     1  UNL1        0.0000
@<TRIPOS>BOND
     1    12    10    2
     2    12    11    1
     3    10     8    1
     4    11     9    2
     5     8     7    2
     6     9     7    1
     7     7     6    1
     8     1     6    1
     9     1     2    1
    10     2     3    2
    11     2     4    1
    12     4     5    1
