@<TRIPOS>MOLECULE
/home/cewinharhar/GITHUB/reincatalyze/data/processed/docking_pred/2023-Apr-25-2248_maxeplen10_maxtrainstep1000_exh16_gamma099_lrac3e-4_lrcr1e-3/dd626561b0241c753f5aa586a778cbbb50e2da15_ligand_2.pdbqt
 12 12 0 0 0
SMALL
GASTEIGER

@<TRIPOS>ATOM
      1  C          8.3970   -0.6530   -2.1210 C.3     1  UNL1        0.1270
      2  C          8.4280   -1.9060   -2.8950 C.2     1  UNL1        0.3030
      3  O          9.5330   -2.4850   -3.0800 O.2     1  UNL1       -0.2520
      4  O          7.2680   -2.4810   -3.4350 O.3     1  UNL1       -0.4810
      5  H          7.1370   -2.4550   -4.4370 H       1  UNL1        0.2960
      6  C          7.0190   -0.0150   -2.1170 C.3     1  UNL1        0.0470
      7  C          6.4810    0.0820   -0.7350 C.2     1  UNL1       -0.0470
      8  C          6.6030   -0.9800    0.1490 C.2     1  UNL1        0.0040
      9  C          5.8330    1.2080   -0.2620 C.2     1  UNL1        0.0040
     10  C          6.1070   -0.9250    1.4310 C.2     1  UNL1        0.0000
     11  C          5.3360    1.2620    1.0230 C.2     1  UNL1        0.0000
     12  C          5.4600    0.2030    1.8930 C.2     1  UNL1        0.0000
@<TRIPOS>BOND
     1     5     4    1
     2     4     2    1
     3     3     2    2
     4     2     1    1
     5     1     6    1
     6     6     7    1
     7     7     9    2
     8     7     8    1
     9     9    11    1
    10     8    10    2
    11    11    12    2
    12    10    12    1
