@<TRIPOS>MOLECULE
/home/cewinharhar/GITHUB/reincatalyze/data/processed/docking_pred/2023-Apr-25-2248_maxeplen10_maxtrainstep1000_exh16_gamma099_lrac3e-4_lrcr1e-3/dd626561b0241c753f5aa586a778cbbb50e2da15_ligand_2.pdbqt
 12 12 0 0 0
SMALL
GASTEIGER

@<TRIPOS>ATOM
      1  C          8.4990    0.6860   -1.6090 C.3     1  UNL1        0.1270
      2  C          9.6660    0.2960   -0.7980 C.2     1  UNL1        0.3030
      3  O          9.5050   -0.5110    0.1580 O.2     1  UNL1       -0.2520
      4  O         10.9530    0.7910   -1.0520 O.3     1  UNL1       -0.4810
      5  H         11.0650    1.5050   -1.7590 H       1  UNL1        0.2960
      6  C          7.3150   -0.2400   -1.3940 C.3     1  UNL1        0.0470
      7  C          6.4160    0.2840   -0.3320 C.2     1  UNL1       -0.0470
      8  C          5.7810    1.5080   -0.4830 C.2     1  UNL1        0.0040
      9  C          6.1730   -0.3990    0.8460 C.2     1  UNL1        0.0040
     10  C          4.9520    2.0250    0.4860 C.2     1  UNL1        0.0000
     11  C          5.3420    0.1200    1.8150 C.2     1  UNL1        0.0000
     12  C          4.7160    1.3370    1.6590 C.2     1  UNL1        0.0000
@<TRIPOS>BOND
     1     5     4    1
     2     1     6    1
     3     1     2    1
     4     6     7    1
     5     4     2    1
     6     2     3    2
     7     8     7    2
     8     8    10    1
     9     7     9    1
    10    10    12    2
    11     9    11    2
    12    12    11    1
