@<TRIPOS>MOLECULE
/home/cewinharhar/GITHUB/reincatalyze/data/processed/docking_pred/2023-Apr-25-2248_maxeplen10_maxtrainstep1000_exh16_gamma099_lrac3e-4_lrcr1e-3/dd626561b0241c753f5aa586a778cbbb50e2da15_ligand_2.pdbqt
 12 12 0 0 0
SMALL
GASTEIGER

@<TRIPOS>ATOM
      1  C          8.4120   -0.7390   -2.0220 C.3     1  UNL1        0.1270
      2  C          8.4010   -1.9460   -2.8680 C.2     1  UNL1        0.3030
      3  O          7.2950   -2.4190   -3.2460 O.2     1  UNL1       -0.2520
      4  O          9.5820   -2.5880   -3.2690 O.3     1  UNL1       -0.4810
      5  H         10.1480   -2.1540   -3.9860 H       1  UNL1        0.2960
      6  C          7.1010    0.0230   -2.0930 C.3     1  UNL1        0.0470
      7  C          6.4850    0.1510   -0.7460 C.2     1  UNL1       -0.0470
      8  C          5.7670    1.2870   -0.4010 C.2     1  UNL1        0.0040
      9  C          6.5980   -0.8280    0.2240 C.2     1  UNL1        0.0040
     10  C          5.1940    1.4400    0.8410 C.2     1  UNL1        0.0000
     11  C          6.0240   -0.6730    1.4680 C.2     1  UNL1        0.0000
     12  C          5.3140    0.4570    1.8030 C.2     1  UNL1        0.0000
@<TRIPOS>BOND
     1     5     4    1
     2     4     2    1
     3     3     2    2
     4     2     1    1
     5     6     1    1
     6     6     7    1
     7     7     8    2
     8     7     9    1
     9     8    10    1
    10     9    11    2
    11    10    12    2
    12    11    12    1
