MODEL 1
REMARK VINA RESULT:      -7.3      0.000      0.000
REMARK SMILES O=C(O)CCc1ccccc1
REMARK SMILES IDX 4 1 2 2 1 3 3 4 5 6 6 7 7 8 11 9 8 10 10 11 9 12
REMARK H PARENT 3 5
REMARK Flexibility Score: inf
ROOT
ATOM      1  C   UNL     1       8.397  -0.653  -2.121  1.00  0.00     0.127 C 
ENDROOT
BRANCH   1   2
ATOM      2  C   UNL     1       8.428  -1.906  -2.895  1.00  0.00     0.303 C 
ATOM      3  O   UNL     1       9.533  -2.485  -3.080  1.00  0.00    -0.252 OA
BRANCH   2   4
ATOM      4  O   UNL     1       7.268  -2.481  -3.435  1.00  0.00    -0.481 OA
ATOM      5  H   UNL     1       7.137  -2.455  -4.437  1.00  0.00     0.296 HD
ENDBRANCH   2   4
ENDBRANCH   1   2
BRANCH   1   6
ATOM      6  C   UNL     1       7.019  -0.015  -2.117  1.00  0.00     0.047 C 
BRANCH   6   7
ATOM      7  C   UNL     1       6.481   0.082  -0.735  1.00  0.00    -0.047 A 
ATOM      8  C   UNL     1       6.603  -0.980   0.149  1.00  0.00     0.004 A 
ATOM      9  C   UNL     1       5.833   1.208  -0.262  1.00  0.00     0.004 A 
ATOM     10  C   UNL     1       6.107  -0.925   1.431  1.00  0.00     0.000 A 
ATOM     11  C   UNL     1       5.336   1.262   1.023  1.00  0.00     0.000 A 
ATOM     12  C   UNL     1       5.460   0.203   1.893  1.00  0.00     0.000 A 
ENDBRANCH   6   7
ENDBRANCH   1   6
TORSDOF 4
ENDMDL
MODEL 2
REMARK VINA RESULT:      -7.3      0.198      1.728
REMARK SMILES O=C(O)CCc1ccccc1
REMARK SMILES IDX 4 1 2 2 1 3 3 4 5 6 6 7 7 8 11 9 8 10 10 11 9 12
REMARK H PARENT 3 5
REMARK Flexibility Score: inf
ROOT
ATOM      1  C   UNL     1       8.412  -0.739  -2.022  1.00  0.00     0.127 C 
ENDROOT
BRANCH   1   2
ATOM      2  C   UNL     1       8.401  -1.946  -2.868  1.00  0.00     0.303 C 
ATOM      3  O   UNL     1       7.295  -2.419  -3.246  1.00  0.00    -0.252 OA
BRANCH   2   4
ATOM      4  O   UNL     1       9.582  -2.588  -3.269  1.00  0.00    -0.481 OA
ATOM      5  H   UNL     1      10.148  -2.154  -3.986  1.00  0.00     0.296 HD
ENDBRANCH   2   4
ENDBRANCH   1   2
BRANCH   1   6
ATOM      6  C   UNL     1       7.101   0.023  -2.093  1.00  0.00     0.047 C 
BRANCH   6   7
ATOM      7  C   UNL     1       6.485   0.151  -0.746  1.00  0.00    -0.047 A 
ATOM      8  C   UNL     1       5.767   1.287  -0.401  1.00  0.00     0.004 A 
ATOM      9  C   UNL     1       6.598  -0.828   0.224  1.00  0.00     0.004 A 
ATOM     10  C   UNL     1       5.194   1.440   0.841  1.00  0.00     0.000 A 
ATOM     11  C   UNL     1       6.024  -0.673   1.468  1.00  0.00     0.000 A 
ATOM     12  C   UNL     1       5.314   0.457   1.803  1.00  0.00     0.000 A 
ENDBRANCH   6   7
ENDBRANCH   1   6
TORSDOF 4
ENDMDL
MODEL 3
REMARK VINA RESULT:      -6.8      3.399      5.076
REMARK SMILES O=C(O)CCc1ccccc1
REMARK SMILES IDX 4 1 2 2 1 3 3 4 5 6 6 7 7 8 11 9 8 10 10 11 9 12
REMARK H PARENT 3 5
REMARK Flexibility Score: inf
ROOT
ATOM      1  C   UNL     1       4.989   1.785   0.733  1.00  0.00     0.127 C 
ENDROOT
BRANCH   1   2
ATOM      2  C   UNL     1       4.462   1.114   1.934  1.00  0.00     0.303 C 
ATOM      3  O   UNL     1       5.148   0.208   2.480  1.00  0.00    -0.252 OA
BRANCH   2   4
ATOM      4  O   UNL     1       3.221   1.450   2.495  1.00  0.00    -0.481 OA
ATOM      5  H   UNL     1       3.083   2.392   2.836  1.00  0.00     0.296 HD
ENDBRANCH   2   4
ENDBRANCH   1   2
BRANCH   1   6
ATOM      6  C   UNL     1       6.500   1.922   0.768  1.00  0.00     0.047 C 
BRANCH   6   7
ATOM      7  C   UNL     1       7.133   1.127  -0.316  1.00  0.00    -0.047 A 
ATOM      8  C   UNL     1       6.385   0.228  -1.063  1.00  0.00     0.004 A 
ATOM      9  C   UNL     1       8.476   1.226  -0.631  1.00  0.00     0.004 A 
ATOM     10  C   UNL     1       6.944  -0.530  -2.067  1.00  0.00     0.000 A 
ATOM     11  C   UNL     1       9.034   0.466  -1.637  1.00  0.00     0.000 A 
ATOM     12  C   UNL     1       8.285  -0.424  -2.372  1.00  0.00     0.000 A 
ENDBRANCH   6   7
ENDBRANCH   1   6
TORSDOF 4
ENDMDL
MODEL 4
REMARK VINA RESULT:      -6.6      1.888      2.858
REMARK SMILES O=C(O)CCc1ccccc1
REMARK SMILES IDX 4 1 2 2 1 3 3 4 5 6 6 7 7 8 11 9 8 10 10 11 9 12
REMARK H PARENT 3 5
REMARK Flexibility Score: inf
ROOT
ATOM      1  C   UNL     1       8.201  -1.675   1.141  1.00  0.00     0.127 C 
ENDROOT
BRANCH   1   2
ATOM      2  C   UNL     1       8.529  -2.862   0.331  1.00  0.00     0.303 C 
ATOM      3  O   UNL     1       9.205  -3.790   0.852  1.00  0.00    -0.252 OA
BRANCH   2   4
ATOM      4  O   UNL     1       8.113  -2.996  -1.001  1.00  0.00    -0.481 OA
ATOM      5  H   UNL     1       7.508  -3.769  -1.243  1.00  0.00     0.296 HD
ENDBRANCH   2   4
ENDBRANCH   1   2
BRANCH   1   6
ATOM      6  C   UNL     1       6.711  -1.557   1.409  1.00  0.00     0.047 C 
BRANCH   6   7
ATOM      7  C   UNL     1       6.170  -0.286   0.862  1.00  0.00    -0.047 A 
ATOM      8  C   UNL     1       6.427   0.086  -0.450  1.00  0.00     0.004 A 
ATOM      9  C   UNL     1       5.404   0.587   1.613  1.00  0.00     0.004 A 
ATOM     10  C   UNL     1       5.949   1.261  -0.983  1.00  0.00     0.000 A 
ATOM     11  C   UNL     1       4.927   1.764   1.078  1.00  0.00     0.000 A 
ATOM     12  C   UNL     1       5.187   2.126  -0.224  1.00  0.00     0.000 A 
ENDBRANCH   6   7
ENDBRANCH   1   6
TORSDOF 4
ENDMDL
MODEL 5
REMARK VINA RESULT:      -6.5      2.084      2.763
REMARK SMILES O=C(O)CCc1ccccc1
REMARK SMILES IDX 4 1 2 2 1 3 3 4 5 6 6 7 7 8 11 9 8 10 10 11 9 12
REMARK H PARENT 3 5
REMARK Flexibility Score: inf
ROOT
ATOM      1  C   UNL     1       8.499   0.686  -1.609  1.00  0.00     0.127 C 
ENDROOT
BRANCH   1   2
ATOM      2  C   UNL     1       9.666   0.296  -0.798  1.00  0.00     0.303 C 
ATOM      3  O   UNL     1       9.505  -0.511   0.158  1.00  0.00    -0.252 OA
BRANCH   2   4
ATOM      4  O   UNL     1      10.953   0.791  -1.052  1.00  0.00    -0.481 OA
ATOM      5  H   UNL     1      11.065   1.505  -1.759  1.00  0.00     0.296 HD
ENDBRANCH   2   4
ENDBRANCH   1   2
BRANCH   1   6
ATOM      6  C   UNL     1       7.315  -0.240  -1.394  1.00  0.00     0.047 C 
BRANCH   6   7
ATOM      7  C   UNL     1       6.416   0.284  -0.332  1.00  0.00    -0.047 A 
ATOM      8  C   UNL     1       5.781   1.508  -0.483  1.00  0.00     0.004 A 
ATOM      9  C   UNL     1       6.173  -0.399   0.846  1.00  0.00     0.004 A 
ATOM     10  C   UNL     1       4.952   2.025   0.486  1.00  0.00     0.000 A 
ATOM     11  C   UNL     1       5.342   0.120   1.815  1.00  0.00     0.000 A 
ATOM     12  C   UNL     1       4.716   1.337   1.659  1.00  0.00     0.000 A 
ENDBRANCH   6   7
ENDBRANCH   1   6
TORSDOF 4
ENDMDL
