@<TRIPOS>MOLECULE
/home/cewinharhar/GITHUB/reincatalyze/data/processed/docking_pred/2023-Apr-25-2248_maxeplen10_maxtrainstep1000_exh16_gamma099_lrac3e-4_lrcr1e-3/ddb46e737fe602632681221f3e2121514b9159c3_ligand_2.pdbqt
 12 12 0 0 0
SMALL
GASTEIGER

@<TRIPOS>ATOM
      1  C          8.1980   -1.1360   -1.6790 C.3     1  UNL1        0.1270
      2  C          8.3180   -2.0440   -2.8330 C.2     1  UNL1        0.3030
      3  O          9.4620   -2.4410   -3.1840 O.2     1  UNL1       -0.2520
      4  O          7.2010   -2.4860   -3.5560 O.3     1  UNL1       -0.4810
      5  H          6.4570   -2.9560   -3.0570 H       1  UNL1        0.2960
      6  C          7.1410   -0.0690   -1.8950 C.3     1  UNL1        0.0470
      7  C          6.4290    0.2410   -0.6280 C.2     1  UNL1       -0.0470
      8  C          6.4510   -0.6530    0.4330 C.2     1  UNL1        0.0040
      9  C          5.7110    1.4080   -0.4390 C.2     1  UNL1        0.0040
     10  C          5.7940   -0.4000    1.6150 C.2     1  UNL1        0.0000
     11  C          5.0540    1.6600    0.7460 C.2     1  UNL1        0.0000
     12  C          5.0790    0.7670    1.7940 C.2     1  UNL1        0.0000
@<TRIPOS>BOND
     1     4     5    1
     2     4     2    1
     3     3     2    2
     4     2     1    1
     5     6     1    1
     6     6     7    1
     7     7     9    2
     8     7     8    1
     9     9    11    1
    10     8    10    2
    11    11    12    2
    12    10    12    1
