@<TRIPOS>MOLECULE
/home/cewinharhar/GITHUB/reincatalyze/data/processed/docking_pred/2023-Apr-25-2248_maxeplen10_maxtrainstep1000_exh16_gamma099_lrac3e-4_lrcr1e-3/ddb46e737fe602632681221f3e2121514b9159c3_ligand_2.pdbqt
 12 12 0 0 0
SMALL
GASTEIGER

@<TRIPOS>ATOM
      1  C          8.4000   -0.6270   -2.1570 C.3     1  UNL1        0.1270
      2  C          8.4010   -1.9010   -2.8980 C.2     1  UNL1        0.3030
      3  O          7.2990   -2.4150   -3.2320 O.2     1  UNL1       -0.2520
      4  O          9.5870   -2.5620   -3.2480 O.3     1  UNL1       -0.4810
      5  H          9.7200   -2.8380   -4.2120 H       1  UNL1        0.2960
      6  C          7.0310    0.0270   -2.1420 C.3     1  UNL1        0.0470
      7  C          6.4820    0.0830   -0.7610 C.2     1  UNL1       -0.0470
      8  C          5.8030    1.2080   -0.3150 C.2     1  UNL1        0.0040
      9  C          6.6230   -0.9540    0.1420 C.2     1  UNL1        0.0040
     10  C          5.2930    1.2950    0.9600 C.2     1  UNL1        0.0000
     11  C          6.1110   -0.8650    1.4190 C.2     1  UNL1        0.0000
     12  C          5.4390    0.2540    1.8550 C.2     1  UNL1        0.0000
@<TRIPOS>BOND
     1     5     4    1
     2     4     2    1
     3     3     2    2
     4     2     1    1
     5     1     6    1
     6     6     7    1
     7     7     8    2
     8     7     9    1
     9     8    10    1
    10     9    11    2
    11    10    12    2
    12    11    12    1
