@<TRIPOS>MOLECULE
/home/cewinharhar/GITHUB/reincatalyze/data/processed/docking_pred/2023-Apr-25-2248_maxeplen10_maxtrainstep1000_exh16_gamma099_lrac3e-4_lrcr1e-3/ddb46e737fe602632681221f3e2121514b9159c3_ligand_2.pdbqt
 12 12 0 0 0
SMALL
GASTEIGER

@<TRIPOS>ATOM
      1  C          8.3530    0.2920   -2.1360 C.3     1  UNL1        0.1270
      2  C          9.4580    0.3820   -1.1660 C.2     1  UNL1        0.3030
      3  O          9.4740   -0.4040   -0.1800 O.2     1  UNL1       -0.2520
      4  O         10.4980    1.3140   -1.3010 O.3     1  UNL1       -0.4810
      5  H         11.2050    1.3580   -0.5790 H       1  UNL1        0.2960
      6  C          7.1770   -0.5020   -1.5930 C.3     1  UNL1        0.0470
      7  C          6.3750    0.3150   -0.6460 C.2     1  UNL1       -0.0470
      8  C          6.1470   -0.1250    0.6500 C.2     1  UNL1        0.0040
      9  C          5.8140    1.5300   -0.9940 C.2     1  UNL1        0.0040
     10  C          5.4000    0.6030    1.5480 C.2     1  UNL1        0.0000
     11  C          5.0660    2.2580   -0.0930 C.2     1  UNL1        0.0000
     12  C          4.8430    1.8140    1.1900 C.2     1  UNL1        0.0000
@<TRIPOS>BOND
     1     1     6    1
     2     1     2    1
     3     6     7    1
     4     4     2    1
     5     4     5    1
     6     2     3    2
     7     9     7    2
     8     9    11    1
     9     7     8    1
    10    11    12    2
    11     8    10    2
    12    12    10    1
