@<TRIPOS>MOLECULE
/home/cewinharhar/GITHUB/reincatalyze/data/processed/docking_pred/2023-Apr-25-2248_maxeplen10_maxtrainstep1000_exh16_gamma099_lrac3e-4_lrcr1e-3/ddb46e737fe602632681221f3e2121514b9159c3_ligand_2.pdbqt
 12 12 0 0 0
SMALL
GASTEIGER

@<TRIPOS>ATOM
      1  C          5.0430    1.7110    0.7090 C.3     1  UNL1        0.1270
      2  C          4.5800    1.0390    1.9360 C.2     1  UNL1        0.3030
      3  O          5.3310    0.1910    2.4900 O.2     1  UNL1       -0.2520
      4  O          3.3310    1.3120    2.5120 O.3     1  UNL1       -0.4810
      5  H          2.7090    0.5390    2.7070 H       1  UNL1        0.2960
      6  C          6.5510    1.8830    0.6820 C.3     1  UNL1        0.0470
      7  C          7.1630    1.0550   -0.3890 C.2     1  UNL1       -0.0470
      8  C          8.5120    1.1760   -0.6930 C.2     1  UNL1        0.0040
      9  C          6.4400    0.1440   -1.1360 C.2     1  UNL1        0.0040
     10  C          9.1060    0.4310   -1.6860 C.2     1  UNL1        0.0000
     11  C          7.0360   -0.6010   -2.1300 C.2     1  UNL1        0.0000
     12  C          8.3740   -0.4750   -2.4270 C.2     1  UNL1        0.0000
@<TRIPOS>BOND
     1    12    11    2
     2    12    10    1
     3    11     9    1
     4    10     8    2
     5     9     7    2
     6     8     7    1
     7     7     6    1
     8     6     1    1
     9     1     2    1
    10     2     3    2
    11     2     4    1
    12     4     5    1
