@<TRIPOS>MOLECULE
/home/cewinharhar/GITHUB/reincatalyze/data/processed/docking_pred/2023-Apr-25-2248_maxeplen10_maxtrainstep1000_exh16_gamma099_lrac3e-4_lrcr1e-3/ddb46e737fe602632681221f3e2121514b9159c3_ligand_2.pdbqt
 12 12 0 0 0
SMALL
GASTEIGER

@<TRIPOS>ATOM
      1  C          8.4000   -0.6800   -2.0880 C.3     1  UNL1        0.1270
      2  C          8.4040   -1.9220   -2.8810 C.2     1  UNL1        0.3030
      3  O          7.3030   -2.4240   -3.2370 O.2     1  UNL1       -0.2520
      4  O          9.5910   -2.5660   -3.2570 O.3     1  UNL1       -0.4810
      5  H          9.9760   -2.3760   -4.1730 H       1  UNL1        0.2960
      6  C          7.0500    0.0150   -2.1150 C.3     1  UNL1        0.0470
      7  C          6.4820    0.1270   -0.7470 C.2     1  UNL1       -0.0470
      8  C          6.6040   -0.9180    0.1580 C.2     1  UNL1        0.0040
      9  C          5.8040    1.2490   -0.3080 C.2     1  UNL1        0.0040
     10  C          6.0790   -0.8490    1.4290 C.2     1  UNL1        0.0000
     11  C          5.2790    1.3170    0.9650 C.2     1  UNL1        0.0000
     12  C          5.4030    0.2760    1.8570 C.2     1  UNL1        0.0000
@<TRIPOS>BOND
     1     5     4    1
     2     4     2    1
     3     3     2    2
     4     2     1    1
     5     6     1    1
     6     6     7    1
     7     7     9    2
     8     7     8    1
     9     9    11    1
    10     8    10    2
    11    11    12    2
    12    10    12    1
