MODEL 1
REMARK VINA RESULT:      -7.3      0.000      0.000
REMARK SMILES O=C(O)CCc1ccccc1
REMARK SMILES IDX 4 1 2 2 1 3 3 4 5 6 6 7 7 8 11 9 8 10 10 11 9 12
REMARK H PARENT 3 5
REMARK Flexibility Score: inf
ROOT
ATOM      1  C   UNL     1       8.400  -0.680  -2.088  1.00  0.00     0.127 C 
ENDROOT
BRANCH   1   2
ATOM      2  C   UNL     1       8.404  -1.922  -2.881  1.00  0.00     0.303 C 
ATOM      3  O   UNL     1       7.303  -2.424  -3.237  1.00  0.00    -0.252 OA
BRANCH   2   4
ATOM      4  O   UNL     1       9.591  -2.566  -3.257  1.00  0.00    -0.481 OA
ATOM      5  H   UNL     1       9.976  -2.376  -4.173  1.00  0.00     0.296 HD
ENDBRANCH   2   4
ENDBRANCH   1   2
BRANCH   1   6
ATOM      6  C   UNL     1       7.050   0.015  -2.115  1.00  0.00     0.047 C 
BRANCH   6   7
ATOM      7  C   UNL     1       6.482   0.127  -0.747  1.00  0.00    -0.047 A 
ATOM      8  C   UNL     1       6.604  -0.918   0.158  1.00  0.00     0.004 A 
ATOM      9  C   UNL     1       5.804   1.249  -0.308  1.00  0.00     0.004 A 
ATOM     10  C   UNL     1       6.079  -0.849   1.429  1.00  0.00     0.000 A 
ATOM     11  C   UNL     1       5.279   1.317   0.965  1.00  0.00     0.000 A 
ATOM     12  C   UNL     1       5.403   0.276   1.857  1.00  0.00     0.000 A 
ENDBRANCH   6   7
ENDBRANCH   1   6
TORSDOF 4
ENDMDL
MODEL 2
REMARK VINA RESULT:      -7.2      0.042      1.421
REMARK SMILES O=C(O)CCc1ccccc1
REMARK SMILES IDX 4 1 2 2 1 3 3 4 5 6 6 7 7 8 11 9 8 10 10 11 9 12
REMARK H PARENT 3 5
REMARK Flexibility Score: inf
ROOT
ATOM      1  C   UNL     1       8.400  -0.627  -2.157  1.00  0.00     0.127 C 
ENDROOT
BRANCH   1   2
ATOM      2  C   UNL     1       8.401  -1.901  -2.898  1.00  0.00     0.303 C 
ATOM      3  O   UNL     1       7.299  -2.415  -3.232  1.00  0.00    -0.252 OA
BRANCH   2   4
ATOM      4  O   UNL     1       9.587  -2.562  -3.248  1.00  0.00    -0.481 OA
ATOM      5  H   UNL     1       9.720  -2.838  -4.212  1.00  0.00     0.296 HD
ENDBRANCH   2   4
ENDBRANCH   1   2
BRANCH   1   6
ATOM      6  C   UNL     1       7.031   0.027  -2.142  1.00  0.00     0.047 C 
BRANCH   6   7
ATOM      7  C   UNL     1       6.482   0.083  -0.761  1.00  0.00    -0.047 A 
ATOM      8  C   UNL     1       5.803   1.208  -0.315  1.00  0.00     0.004 A 
ATOM      9  C   UNL     1       6.623  -0.954   0.142  1.00  0.00     0.004 A 
ATOM     10  C   UNL     1       5.293   1.295   0.960  1.00  0.00     0.000 A 
ATOM     11  C   UNL     1       6.111  -0.865   1.419  1.00  0.00     0.000 A 
ATOM     12  C   UNL     1       5.439   0.254   1.855  1.00  0.00     0.000 A 
ENDBRANCH   6   7
ENDBRANCH   1   6
TORSDOF 4
ENDMDL
MODEL 3
REMARK VINA RESULT:      -7.2      0.404      1.049
REMARK SMILES O=C(O)CCc1ccccc1
REMARK SMILES IDX 4 1 2 2 1 3 3 4 5 6 6 7 7 8 11 9 8 10 10 11 9 12
REMARK H PARENT 3 5
REMARK Flexibility Score: inf
ROOT
ATOM      1  C   UNL     1       8.198  -1.136  -1.679  1.00  0.00     0.127 C 
ENDROOT
BRANCH   1   2
ATOM      2  C   UNL     1       8.318  -2.044  -2.833  1.00  0.00     0.303 C 
ATOM      3  O   UNL     1       9.462  -2.441  -3.184  1.00  0.00    -0.252 OA
BRANCH   2   4
ATOM      4  O   UNL     1       7.201  -2.486  -3.556  1.00  0.00    -0.481 OA
ATOM      5  H   UNL     1       6.457  -2.956  -3.057  1.00  0.00     0.296 HD
ENDBRANCH   2   4
ENDBRANCH   1   2
BRANCH   1   6
ATOM      6  C   UNL     1       7.141  -0.069  -1.895  1.00  0.00     0.047 C 
BRANCH   6   7
ATOM      7  C   UNL     1       6.429   0.241  -0.628  1.00  0.00    -0.047 A 
ATOM      8  C   UNL     1       6.451  -0.653   0.433  1.00  0.00     0.004 A 
ATOM      9  C   UNL     1       5.711   1.408  -0.439  1.00  0.00     0.004 A 
ATOM     10  C   UNL     1       5.794  -0.400   1.615  1.00  0.00     0.000 A 
ATOM     11  C   UNL     1       5.054   1.660   0.746  1.00  0.00     0.000 A 
ATOM     12  C   UNL     1       5.079   0.767   1.794  1.00  0.00     0.000 A 
ENDBRANCH   6   7
ENDBRANCH   1   6
TORSDOF 4
ENDMDL
MODEL 4
REMARK VINA RESULT:      -6.7      3.290      5.144
REMARK SMILES O=C(O)CCc1ccccc1
REMARK SMILES IDX 4 1 2 2 1 3 3 4 5 6 6 7 7 8 11 9 8 10 10 11 9 12
REMARK H PARENT 3 5
REMARK Flexibility Score: inf
ROOT
ATOM      1  C   UNL     1       5.043   1.711   0.709  1.00  0.00     0.127 C 
ENDROOT
BRANCH   1   2
ATOM      2  C   UNL     1       4.580   1.039   1.936  1.00  0.00     0.303 C 
ATOM      3  O   UNL     1       5.331   0.191   2.490  1.00  0.00    -0.252 OA
BRANCH   2   4
ATOM      4  O   UNL     1       3.331   1.312   2.512  1.00  0.00    -0.481 OA
ATOM      5  H   UNL     1       2.709   0.539   2.707  1.00  0.00     0.296 HD
ENDBRANCH   2   4
ENDBRANCH   1   2
BRANCH   1   6
ATOM      6  C   UNL     1       6.551   1.883   0.682  1.00  0.00     0.047 C 
BRANCH   6   7
ATOM      7  C   UNL     1       7.163   1.055  -0.389  1.00  0.00    -0.047 A 
ATOM      8  C   UNL     1       8.512   1.176  -0.693  1.00  0.00     0.004 A 
ATOM      9  C   UNL     1       6.440   0.144  -1.136  1.00  0.00     0.004 A 
ATOM     10  C   UNL     1       9.106   0.431  -1.686  1.00  0.00     0.000 A 
ATOM     11  C   UNL     1       7.036  -0.601  -2.130  1.00  0.00     0.000 A 
ATOM     12  C   UNL     1       8.374  -0.475  -2.427  1.00  0.00     0.000 A 
ENDBRANCH   6   7
ENDBRANCH   1   6
TORSDOF 4
ENDMDL
MODEL 5
REMARK VINA RESULT:      -6.6      1.965      2.299
REMARK SMILES O=C(O)CCc1ccccc1
REMARK SMILES IDX 4 1 2 2 1 3 3 4 5 6 6 7 7 8 11 9 8 10 10 11 9 12
REMARK H PARENT 3 5
REMARK Flexibility Score: inf
ROOT
ATOM      1  C   UNL     1       8.353   0.292  -2.136  1.00  0.00     0.127 C 
ENDROOT
BRANCH   1   2
ATOM      2  C   UNL     1       9.458   0.382  -1.166  1.00  0.00     0.303 C 
ATOM      3  O   UNL     1       9.474  -0.404  -0.180  1.00  0.00    -0.252 OA
BRANCH   2   4
ATOM      4  O   UNL     1      10.498   1.314  -1.301  1.00  0.00    -0.481 OA
ATOM      5  H   UNL     1      11.205   1.358  -0.579  1.00  0.00     0.296 HD
ENDBRANCH   2   4
ENDBRANCH   1   2
BRANCH   1   6
ATOM      6  C   UNL     1       7.177  -0.502  -1.593  1.00  0.00     0.047 C 
BRANCH   6   7
ATOM      7  C   UNL     1       6.375   0.315  -0.646  1.00  0.00    -0.047 A 
ATOM      8  C   UNL     1       6.147  -0.125   0.650  1.00  0.00     0.004 A 
ATOM      9  C   UNL     1       5.814   1.530  -0.994  1.00  0.00     0.004 A 
ATOM     10  C   UNL     1       5.400   0.603   1.548  1.00  0.00     0.000 A 
ATOM     11  C   UNL     1       5.066   2.258  -0.093  1.00  0.00     0.000 A 
ATOM     12  C   UNL     1       4.843   1.814   1.190  1.00  0.00     0.000 A 
ENDBRANCH   6   7
ENDBRANCH   1   6
TORSDOF 4
ENDMDL
