@<TRIPOS>MOLECULE
/home/cewinharhar/GITHUB/reincatalyze/data/processed/docking_pred/2023-Apr-25-2248_maxeplen10_maxtrainstep1000_exh16_gamma099_lrac3e-4_lrcr1e-3/de552809cd3cf8423e47c41d2ed627091c55f56d_ligand_2.pdbqt
 12 12 0 0 0
SMALL
GASTEIGER

@<TRIPOS>ATOM
      1  C          8.3880   -0.6250   -2.1690 C.3     1  UNL1        0.1270
      2  C          8.4330   -1.9010   -2.9060 C.2     1  UNL1        0.3030
      3  O          9.5420   -2.4810   -3.0590 O.2     1  UNL1       -0.2520
      4  O          7.2810   -2.4950   -3.4430 O.3     1  UNL1       -0.4810
      5  H          7.2500   -3.5020   -3.5250 H       1  UNL1        0.2960
      6  C          6.9920   -0.0300   -2.1360 C.3     1  UNL1        0.0470
      7  C          6.4750    0.0400   -0.7440 C.2     1  UNL1       -0.0470
      8  C          6.6250   -1.0340    0.1210 C.2     1  UNL1        0.0040
      9  C          5.8210    1.1500   -0.2440 C.2     1  UNL1        0.0040
     10  C          6.1490   -1.0050    1.4120 C.2     1  UNL1        0.0000
     11  C          5.3440    1.1780    1.0490 C.2     1  UNL1        0.0000
     12  C          5.4960    0.1080    1.9010 C.2     1  UNL1        0.0000
@<TRIPOS>BOND
     1     5     4    1
     2     4     2    1
     3     3     2    2
     4     2     1    1
     5     1     6    1
     6     6     7    1
     7     7     9    2
     8     7     8    1
     9     9    11    1
    10     8    10    2
    11    11    12    2
    12    10    12    1
