@<TRIPOS>MOLECULE
/home/cewinharhar/GITHUB/reincatalyze/data/processed/docking_pred/2023-Apr-25-2248_maxeplen10_maxtrainstep1000_exh16_gamma099_lrac3e-4_lrcr1e-3/de552809cd3cf8423e47c41d2ed627091c55f56d_ligand_2.pdbqt
 12 12 0 0 0
SMALL
GASTEIGER

@<TRIPOS>ATOM
      1  C          8.4020   -0.6560   -2.1230 C.3     1  UNL1        0.1270
      2  C          8.3920   -1.9180   -2.8830 C.2     1  UNL1        0.3030
      3  O          7.2870   -2.4090   -3.2410 O.2     1  UNL1       -0.2520
      4  O          9.5720   -2.5940   -3.2260 O.3     1  UNL1       -0.4810
      5  H          9.5050   -3.5490   -3.5520 H       1  UNL1        0.2960
      6  C          7.0470    0.0290   -2.1300 C.3     1  UNL1        0.0470
      7  C          6.4820    0.1050   -0.7570 C.2     1  UNL1       -0.0470
      8  C          5.7850    1.2310   -0.3410 C.2     1  UNL1        0.0040
      9  C          6.6220   -0.9130    0.1670 C.2     1  UNL1        0.0040
     10  C          5.2590    1.3360    0.9260 C.2     1  UNL1        0.0000
     11  C          6.0940   -0.8060    1.4360 C.2     1  UNL1        0.0000
     12  C          5.4050    0.3140    1.8430 C.2     1  UNL1        0.0000
@<TRIPOS>BOND
     1     5     4    1
     2     3     2    2
     3     4     2    1
     4     2     1    1
     5     6     1    1
     6     6     7    1
     7     7     8    2
     8     7     9    1
     9     8    10    1
    10     9    11    2
    11    10    12    2
    12    11    12    1
