@<TRIPOS>MOLECULE
/home/cewinharhar/GITHUB/reincatalyze/data/processed/docking_pred/2023-Apr-25-2248_maxeplen10_maxtrainstep1000_exh16_gamma099_lrac3e-4_lrcr1e-3/de552809cd3cf8423e47c41d2ed627091c55f56d_ligand_2.pdbqt
 12 12 0 0 0
SMALL
GASTEIGER

@<TRIPOS>ATOM
      1  C          5.0080    1.7850    0.7040 C.3     1  UNL1        0.1270
      2  C          4.4800    1.1320    1.9150 C.2     1  UNL1        0.3030
      3  O          5.1690    0.2390    2.4790 O.2     1  UNL1       -0.2520
      4  O          3.2360    1.4700    2.4650 O.3     1  UNL1       -0.4810
      5  H          2.4310    0.9070    2.2240 H       1  UNL1        0.2960
      6  C          6.5210    1.9050    0.7300 C.3     1  UNL1        0.0470
      7  C          7.1400    1.0790   -0.3400 C.2     1  UNL1       -0.0470
      8  C          8.4790    1.2340   -0.6680 C.2     1  UNL1        0.0040
      9  C          6.4310    0.1360   -1.0610 C.2     1  UNL1        0.0040
     10  C          9.0780    0.4920   -1.6600 C.2     1  UNL1        0.0000
     11  C          7.0330   -0.6060   -2.0550 C.2     1  UNL1        0.0000
     12  C          8.3620   -0.4460   -2.3750 C.2     1  UNL1        0.0000
@<TRIPOS>BOND
     1    12    11    2
     2    12    10    1
     3    11     9    1
     4    10     8    2
     5     9     7    2
     6     8     7    1
     7     7     6    1
     8     1     6    1
     9     1     2    1
    10     2     4    1
    11     2     3    2
    12     5     4    1
