MODEL 1
REMARK VINA RESULT:      -7.3      0.000      0.000
REMARK SMILES O=C(O)CCc1ccccc1
REMARK SMILES IDX 4 1 2 2 1 3 3 4 5 6 6 7 7 8 11 9 8 10 10 11 9 12
REMARK H PARENT 3 5
REMARK Flexibility Score: inf
ROOT
ATOM      1  C   UNL     1       8.388  -0.625  -2.169  1.00  0.00     0.127 C 
ENDROOT
BRANCH   1   2
ATOM      2  C   UNL     1       8.433  -1.901  -2.906  1.00  0.00     0.303 C 
ATOM      3  O   UNL     1       9.542  -2.481  -3.059  1.00  0.00    -0.252 OA
BRANCH   2   4
ATOM      4  O   UNL     1       7.281  -2.495  -3.443  1.00  0.00    -0.481 OA
ATOM      5  H   UNL     1       7.250  -3.502  -3.525  1.00  0.00     0.296 HD
ENDBRANCH   2   4
ENDBRANCH   1   2
BRANCH   1   6
ATOM      6  C   UNL     1       6.992  -0.030  -2.136  1.00  0.00     0.047 C 
BRANCH   6   7
ATOM      7  C   UNL     1       6.475   0.040  -0.744  1.00  0.00    -0.047 A 
ATOM      8  C   UNL     1       6.625  -1.034   0.121  1.00  0.00     0.004 A 
ATOM      9  C   UNL     1       5.821   1.150  -0.244  1.00  0.00     0.004 A 
ATOM     10  C   UNL     1       6.149  -1.005   1.412  1.00  0.00     0.000 A 
ATOM     11  C   UNL     1       5.344   1.178   1.049  1.00  0.00     0.000 A 
ATOM     12  C   UNL     1       5.496   0.108   1.901  1.00  0.00     0.000 A 
ENDBRANCH   6   7
ENDBRANCH   1   6
TORSDOF 4
ENDMDL
MODEL 2
REMARK VINA RESULT:      -7.3      0.161      1.726
REMARK SMILES O=C(O)CCc1ccccc1
REMARK SMILES IDX 4 1 2 2 1 3 3 4 5 6 6 7 7 8 11 9 8 10 10 11 9 12
REMARK H PARENT 3 5
REMARK Flexibility Score: inf
ROOT
ATOM      1  C   UNL     1       8.402  -0.656  -2.123  1.00  0.00     0.127 C 
ENDROOT
BRANCH   1   2
ATOM      2  C   UNL     1       8.392  -1.918  -2.883  1.00  0.00     0.303 C 
ATOM      3  O   UNL     1       7.287  -2.409  -3.241  1.00  0.00    -0.252 OA
BRANCH   2   4
ATOM      4  O   UNL     1       9.572  -2.594  -3.226  1.00  0.00    -0.481 OA
ATOM      5  H   UNL     1       9.505  -3.549  -3.552  1.00  0.00     0.296 HD
ENDBRANCH   2   4
ENDBRANCH   1   2
BRANCH   1   6
ATOM      6  C   UNL     1       7.047   0.029  -2.130  1.00  0.00     0.047 C 
BRANCH   6   7
ATOM      7  C   UNL     1       6.482   0.105  -0.757  1.00  0.00    -0.047 A 
ATOM      8  C   UNL     1       5.785   1.231  -0.341  1.00  0.00     0.004 A 
ATOM      9  C   UNL     1       6.622  -0.913   0.167  1.00  0.00     0.004 A 
ATOM     10  C   UNL     1       5.259   1.336   0.926  1.00  0.00     0.000 A 
ATOM     11  C   UNL     1       6.094  -0.806   1.436  1.00  0.00     0.000 A 
ATOM     12  C   UNL     1       5.405   0.314   1.843  1.00  0.00     0.000 A 
ENDBRANCH   6   7
ENDBRANCH   1   6
TORSDOF 4
ENDMDL
MODEL 3
REMARK VINA RESULT:      -6.8      3.408      5.095
REMARK SMILES O=C(O)CCc1ccccc1
REMARK SMILES IDX 4 1 2 2 1 3 3 4 5 6 6 7 7 8 11 9 8 10 10 11 9 12
REMARK H PARENT 3 5
REMARK Flexibility Score: inf
ROOT
ATOM      1  C   UNL     1       5.008   1.785   0.704  1.00  0.00     0.127 C 
ENDROOT
BRANCH   1   2
ATOM      2  C   UNL     1       4.480   1.132   1.915  1.00  0.00     0.303 C 
ATOM      3  O   UNL     1       5.169   0.239   2.479  1.00  0.00    -0.252 OA
BRANCH   2   4
ATOM      4  O   UNL     1       3.236   1.470   2.465  1.00  0.00    -0.481 OA
ATOM      5  H   UNL     1       2.431   0.907   2.224  1.00  0.00     0.296 HD
ENDBRANCH   2   4
ENDBRANCH   1   2
BRANCH   1   6
ATOM      6  C   UNL     1       6.521   1.905   0.730  1.00  0.00     0.047 C 
BRANCH   6   7
ATOM      7  C   UNL     1       7.140   1.079  -0.340  1.00  0.00    -0.047 A 
ATOM      8  C   UNL     1       8.479   1.234  -0.668  1.00  0.00     0.004 A 
ATOM      9  C   UNL     1       6.431   0.136  -1.061  1.00  0.00     0.004 A 
ATOM     10  C   UNL     1       9.078   0.492  -1.660  1.00  0.00     0.000 A 
ATOM     11  C   UNL     1       7.033  -0.606  -2.055  1.00  0.00     0.000 A 
ATOM     12  C   UNL     1       8.362  -0.446  -2.375  1.00  0.00     0.000 A 
ENDBRANCH   6   7
ENDBRANCH   1   6
TORSDOF 4
ENDMDL
MODEL 4
REMARK VINA RESULT:      -6.6      1.947      2.926
REMARK SMILES O=C(O)CCc1ccccc1
REMARK SMILES IDX 4 1 2 2 1 3 3 4 5 6 6 7 7 8 11 9 8 10 10 11 9 12
REMARK H PARENT 3 5
REMARK Flexibility Score: inf
ROOT
ATOM      1  C   UNL     1       8.277  -1.655   1.158  1.00  0.00     0.127 C 
ENDROOT
BRANCH   1   2
ATOM      2  C   UNL     1       8.665  -2.894   0.461  1.00  0.00     0.303 C 
ATOM      3  O   UNL     1       9.394  -3.730   1.060  1.00  0.00    -0.252 OA
BRANCH   2   4
ATOM      4  O   UNL     1       8.248  -3.178  -0.848  1.00  0.00    -0.481 OA
ATOM      5  H   UNL     1       7.803  -2.445  -1.383  1.00  0.00     0.296 HD
ENDBRANCH   2   4
ENDBRANCH   1   2
BRANCH   1   6
ATOM      6  C   UNL     1       6.781  -1.577   1.401  1.00  0.00     0.047 C 
BRANCH   6   7
ATOM      7  C   UNL     1       6.217  -0.314   0.858  1.00  0.00    -0.047 A 
ATOM      8  C   UNL     1       6.469   0.067  -0.452  1.00  0.00     0.004 A 
ATOM      9  C   UNL     1       5.435   0.542   1.612  1.00  0.00     0.004 A 
ATOM     10  C   UNL     1       5.971   1.236  -0.982  1.00  0.00     0.000 A 
ATOM     11  C   UNL     1       4.937   1.712   1.080  1.00  0.00     0.000 A 
ATOM     12  C   UNL     1       5.192   2.084  -0.220  1.00  0.00     0.000 A 
ENDBRANCH   6   7
ENDBRANCH   1   6
TORSDOF 4
ENDMDL
MODEL 5
REMARK VINA RESULT:      -6.6      2.079      2.768
REMARK SMILES O=C(O)CCc1ccccc1
REMARK SMILES IDX 4 1 2 2 1 3 3 4 5 6 6 7 7 8 11 9 8 10 10 11 9 12
REMARK H PARENT 3 5
REMARK Flexibility Score: inf
ROOT
ATOM      1  C   UNL     1       8.515   0.669  -1.643  1.00  0.00     0.127 C 
ENDROOT
BRANCH   1   2
ATOM      2  C   UNL     1       9.673   0.289  -0.814  1.00  0.00     0.303 C 
ATOM      3  O   UNL     1       9.503  -0.510   0.146  1.00  0.00    -0.252 OA
BRANCH   2   4
ATOM      4  O   UNL     1      10.962   0.786  -1.057  1.00  0.00    -0.481 OA
ATOM      5  H   UNL     1      11.156   1.208  -1.955  1.00  0.00     0.296 HD
ENDBRANCH   2   4
ENDBRANCH   1   2
BRANCH   1   6
ATOM      6  C   UNL     1       7.327  -0.250  -1.424  1.00  0.00     0.047 C 
BRANCH   6   7
ATOM      7  C   UNL     1       6.429   0.283  -0.366  1.00  0.00    -0.047 A 
ATOM      8  C   UNL     1       5.796   1.507  -0.526  1.00  0.00     0.004 A 
ATOM      9  C   UNL     1       6.186  -0.390   0.817  1.00  0.00     0.004 A 
ATOM     10  C   UNL     1       4.968   2.032   0.439  1.00  0.00     0.000 A 
ATOM     11  C   UNL     1       5.356   0.137   1.783  1.00  0.00     0.000 A 
ATOM     12  C   UNL     1       4.732   1.353   1.618  1.00  0.00     0.000 A 
ENDBRANCH   6   7
ENDBRANCH   1   6
TORSDOF 4
ENDMDL
