@<TRIPOS>MOLECULE
/home/cewinharhar/GITHUB/reincatalyze/data/processed/docking_pred/2023-Apr-25-2248_maxeplen10_maxtrainstep1000_exh16_gamma099_lrac3e-4_lrcr1e-3/de552809cd3cf8423e47c41d2ed627091c55f56d_ligand_2.pdbqt
 12 12 0 0 0
SMALL
GASTEIGER

@<TRIPOS>ATOM
      1  C          8.2770   -1.6550    1.1580 C.3     1  UNL1        0.1270
      2  C          8.6650   -2.8940    0.4610 C.2     1  UNL1        0.3030
      3  O          9.3940   -3.7300    1.0600 O.2     1  UNL1       -0.2520
      4  O          8.2480   -3.1780   -0.8480 O.3     1  UNL1       -0.4810
      5  H          7.8030   -2.4450   -1.3830 H       1  UNL1        0.2960
      6  C          6.7810   -1.5770    1.4010 C.3     1  UNL1        0.0470
      7  C          6.2170   -0.3140    0.8580 C.2     1  UNL1       -0.0470
      8  C          6.4690    0.0670   -0.4520 C.2     1  UNL1        0.0040
      9  C          5.4350    0.5420    1.6120 C.2     1  UNL1        0.0040
     10  C          5.9710    1.2360   -0.9820 C.2     1  UNL1        0.0000
     11  C          4.9370    1.7120    1.0800 C.2     1  UNL1        0.0000
     12  C          5.1920    2.0840   -0.2200 C.2     1  UNL1        0.0000
@<TRIPOS>BOND
     1     5     4    1
     2    10     8    1
     3    10    12    2
     4     4     2    1
     5     8     7    2
     6    12    11    1
     7     2     3    2
     8     2     1    1
     9     7     6    1
    10     7     9    1
    11    11     9    2
    12     1     6    1
