@<TRIPOS>MOLECULE
/home/cewinharhar/GITHUB/reincatalyze/data/processed/docking_pred/2023-Apr-25-2248_maxeplen10_maxtrainstep1000_exh16_gamma099_lrac3e-4_lrcr1e-3/de552809cd3cf8423e47c41d2ed627091c55f56d_ligand_2.pdbqt
 12 12 0 0 0
SMALL
GASTEIGER

@<TRIPOS>ATOM
      1  C          8.5150    0.6690   -1.6430 C.3     1  UNL1        0.1270
      2  C          9.6730    0.2890   -0.8140 C.2     1  UNL1        0.3030
      3  O          9.5030   -0.5100    0.1460 O.2     1  UNL1       -0.2520
      4  O         10.9620    0.7860   -1.0570 O.3     1  UNL1       -0.4810
      5  H         11.1560    1.2080   -1.9550 H       1  UNL1        0.2960
      6  C          7.3270   -0.2500   -1.4240 C.3     1  UNL1        0.0470
      7  C          6.4290    0.2830   -0.3660 C.2     1  UNL1       -0.0470
      8  C          5.7960    1.5070   -0.5260 C.2     1  UNL1        0.0040
      9  C          6.1860   -0.3900    0.8170 C.2     1  UNL1        0.0040
     10  C          4.9680    2.0320    0.4390 C.2     1  UNL1        0.0000
     11  C          5.3560    0.1370    1.7830 C.2     1  UNL1        0.0000
     12  C          4.7320    1.3530    1.6180 C.2     1  UNL1        0.0000
@<TRIPOS>BOND
     1     5     4    1
     2     1     6    1
     3     1     2    1
     4     6     7    1
     5     4     2    1
     6     2     3    2
     7     8     7    2
     8     8    10    1
     9     7     9    1
    10    10    12    2
    11     9    11    2
    12    12    11    1
