MODEL 1
REMARK VINA RESULT:      -7.3      0.000      0.000
REMARK SMILES O=C(O)CCc1ccccc1
REMARK SMILES IDX 4 1 2 2 1 3 3 4 5 6 6 7 7 8 11 9 8 10 10 11 9 12
REMARK H PARENT 3 5
REMARK Flexibility Score: inf
ROOT
ATOM      1  C   UNL     1       8.420  -0.665  -2.124  1.00  0.00     0.127 C 
ENDROOT
BRANCH   1   2
ATOM      2  C   UNL     1       8.449  -1.922  -2.893  1.00  0.00     0.303 C 
ATOM      3  O   UNL     1       9.553  -2.504  -3.073  1.00  0.00    -0.252 OA
BRANCH   2   4
ATOM      4  O   UNL     1       7.289  -2.497  -3.432  1.00  0.00    -0.481 OA
ATOM      5  H   UNL     1       7.335  -3.446  -3.777  1.00  0.00     0.296 HD
ENDBRANCH   2   4
ENDBRANCH   1   2
BRANCH   1   6
ATOM      6  C   UNL     1       7.049  -0.012  -2.145  1.00  0.00     0.047 C 
BRANCH   6   7
ATOM      7  C   UNL     1       6.494   0.102  -0.771  1.00  0.00    -0.047 A 
ATOM      8  C   UNL     1       6.625  -0.941   0.135  1.00  0.00     0.004 A 
ATOM      9  C   UNL     1       5.819   1.225  -0.328  1.00  0.00     0.004 A 
ATOM     10  C   UNL     1       6.113  -0.869   1.410  1.00  0.00     0.000 A 
ATOM     11  C   UNL     1       5.307   1.295   0.950  1.00  0.00     0.000 A 
ATOM     12  C   UNL     1       5.440   0.256   1.843  1.00  0.00     0.000 A 
ENDBRANCH   6   7
ENDBRANCH   1   6
TORSDOF 4
ENDMDL
MODEL 2
REMARK VINA RESULT:      -7.2      0.092      1.723
REMARK SMILES O=C(O)CCc1ccccc1
REMARK SMILES IDX 4 1 2 2 1 3 3 4 5 6 6 7 7 8 11 9 8 10 10 11 9 12
REMARK H PARENT 3 5
REMARK Flexibility Score: inf
ROOT
ATOM      1  C   UNL     1       8.403  -0.651  -2.134  1.00  0.00     0.127 C 
ENDROOT
BRANCH   1   2
ATOM      2  C   UNL     1       8.409  -1.914  -2.893  1.00  0.00     0.303 C 
ATOM      3  O   UNL     1       7.309  -2.431  -3.231  1.00  0.00    -0.252 OA
BRANCH   2   4
ATOM      4  O   UNL     1       9.598  -2.563  -3.255  1.00  0.00    -0.481 OA
ATOM      5  H   UNL     1      10.161  -2.983  -2.527  1.00  0.00     0.296 HD
ENDBRANCH   2   4
ENDBRANCH   1   2
BRANCH   1   6
ATOM      6  C   UNL     1       7.036   0.010  -2.131  1.00  0.00     0.047 C 
BRANCH   6   7
ATOM      7  C   UNL     1       6.481   0.078  -0.754  1.00  0.00    -0.047 A 
ATOM      8  C   UNL     1       5.819   1.215  -0.313  1.00  0.00     0.004 A 
ATOM      9  C   UNL     1       6.597  -0.961   0.152  1.00  0.00     0.004 A 
ATOM     10  C   UNL     1       5.303   1.312   0.959  1.00  0.00     0.000 A 
ATOM     11  C   UNL     1       6.080  -0.861   1.426  1.00  0.00     0.000 A 
ATOM     12  C   UNL     1       5.425   0.271   1.856  1.00  0.00     0.000 A 
ENDBRANCH   6   7
ENDBRANCH   1   6
TORSDOF 4
ENDMDL
MODEL 3
REMARK VINA RESULT:      -6.8      3.393      5.086
REMARK SMILES O=C(O)CCc1ccccc1
REMARK SMILES IDX 4 1 2 2 1 3 3 4 5 6 6 7 7 8 11 9 8 10 10 11 9 12
REMARK H PARENT 3 5
REMARK Flexibility Score: inf
ROOT
ATOM      1  C   UNL     1       5.004   1.789   0.698  1.00  0.00     0.127 C 
ENDROOT
BRANCH   1   2
ATOM      2  C   UNL     1       4.493   1.129   1.913  1.00  0.00     0.303 C 
ATOM      3  O   UNL     1       5.200   0.249   2.475  1.00  0.00    -0.252 OA
BRANCH   2   4
ATOM      4  O   UNL     1       3.246   1.447   2.470  1.00  0.00    -0.481 OA
ATOM      5  H   UNL     1       2.909   0.897   3.248  1.00  0.00     0.296 HD
ENDBRANCH   2   4
ENDBRANCH   1   2
BRANCH   1   6
ATOM      6  C   UNL     1       6.516   1.919   0.708  1.00  0.00     0.047 C 
BRANCH   6   7
ATOM      7  C   UNL     1       7.130   1.082  -0.355  1.00  0.00    -0.047 A 
ATOM      8  C   UNL     1       8.476   1.210  -0.668  1.00  0.00     0.004 A 
ATOM      9  C   UNL     1       6.411   0.155  -1.086  1.00  0.00     0.004 A 
ATOM     10  C   UNL     1       9.072   0.457  -1.654  1.00  0.00     0.000 A 
ATOM     11  C   UNL     1       7.009  -0.599  -2.073  1.00  0.00     0.000 A 
ATOM     12  C   UNL     1       8.344  -0.465  -2.379  1.00  0.00     0.000 A 
ENDBRANCH   6   7
ENDBRANCH   1   6
TORSDOF 4
ENDMDL
MODEL 4
REMARK VINA RESULT:      -6.6      1.885      2.871
REMARK SMILES O=C(O)CCc1ccccc1
REMARK SMILES IDX 4 1 2 2 1 3 3 4 5 6 6 7 7 8 11 9 8 10 10 11 9 12
REMARK H PARENT 3 5
REMARK Flexibility Score: inf
ROOT
ATOM      1  C   UNL     1       8.066  -1.657   1.215  1.00  0.00     0.127 C 
ENDROOT
BRANCH   1   2
ATOM      2  C   UNL     1       8.471  -2.798   0.375  1.00  0.00     0.303 C 
ATOM      3  O   UNL     1       9.182  -3.709   0.880  1.00  0.00    -0.252 OA
BRANCH   2   4
ATOM      4  O   UNL     1       8.091  -2.908  -0.971  1.00  0.00    -0.481 OA
ATOM      5  H   UNL     1       8.192  -2.099  -1.569  1.00  0.00     0.296 HD
ENDBRANCH   2   4
ENDBRANCH   1   2
BRANCH   1   6
ATOM      6  C   UNL     1       6.557  -1.546   1.344  1.00  0.00     0.047 C 
BRANCH   6   7
ATOM      7  C   UNL     1       6.071  -0.246   0.813  1.00  0.00    -0.047 A 
ATOM      8  C   UNL     1       6.347   0.133  -0.493  1.00  0.00     0.004 A 
ATOM      9  C   UNL     1       5.342   0.648   1.575  1.00  0.00     0.004 A 
ATOM     10  C   UNL     1       5.921   1.335  -1.011  1.00  0.00     0.000 A 
ATOM     11  C   UNL     1       4.915   1.851   1.055  1.00  0.00     0.000 A 
ATOM     12  C   UNL     1       5.194   2.220  -0.241  1.00  0.00     0.000 A 
ENDBRANCH   6   7
ENDBRANCH   1   6
TORSDOF 4
ENDMDL
MODEL 5
REMARK VINA RESULT:      -6.6      3.761      5.035
REMARK SMILES O=C(O)CCc1ccccc1
REMARK SMILES IDX 4 1 2 2 1 3 3 4 5 6 6 7 7 8 11 9 8 10 10 11 9 12
REMARK H PARENT 3 5
REMARK Flexibility Score: inf
ROOT
ATOM      1  C   UNL     1       5.429   2.945   0.069  1.00  0.00     0.127 C 
ENDROOT
BRANCH   1   2
ATOM      2  C   UNL     1       6.251   3.887   0.850  1.00  0.00     0.303 C 
ATOM      3  O   UNL     1       6.909   4.775   0.243  1.00  0.00    -0.252 OA
BRANCH   2   4
ATOM      4  O   UNL     1       6.325   3.832   2.249  1.00  0.00    -0.481 OA
ATOM      5  H   UNL     1       6.043   2.980   2.715  1.00  0.00     0.296 HD
ENDBRANCH   2   4
ENDBRANCH   1   2
BRANCH   1   6
ATOM      6  C   UNL     1       4.958   1.767   0.903  1.00  0.00     0.047 C 
BRANCH   6   7
ATOM      7  C   UNL     1       5.810   0.573   0.666  1.00  0.00    -0.047 A 
ATOM      8  C   UNL     1       6.412   0.366  -0.567  1.00  0.00     0.004 A 
ATOM      9  C   UNL     1       6.039  -0.387   1.635  1.00  0.00     0.004 A 
ATOM     10  C   UNL     1       7.197  -0.735  -0.821  1.00  0.00     0.000 A 
ATOM     11  C   UNL     1       6.826  -1.489   1.379  1.00  0.00     0.000 A 
ATOM     12  C   UNL     1       7.419  -1.688   0.153  1.00  0.00     0.000 A 
ENDBRANCH   6   7
ENDBRANCH   1   6
TORSDOF 4
ENDMDL
