@<TRIPOS>MOLECULE
/home/cewinharhar/GITHUB/reincatalyze/data/processed/docking_pred/2023-Apr-25-2248_maxeplen10_maxtrainstep1000_exh16_gamma099_lrac3e-4_lrcr1e-3/dea2b8be3c05a7e32d8e1c0cb085cc688668c765_ligand_2.pdbqt
 12 12 0 0 0
SMALL
GASTEIGER

@<TRIPOS>ATOM
      1  C          8.4200   -0.6650   -2.1240 C.3     1  UNL1        0.1270
      2  C          8.4490   -1.9220   -2.8930 C.2     1  UNL1        0.3030
      3  O          9.5530   -2.5040   -3.0730 O.2     1  UNL1       -0.2520
      4  O          7.2890   -2.4970   -3.4320 O.3     1  UNL1       -0.4810
      5  H          7.3350   -3.4460   -3.7770 H       1  UNL1        0.2960
      6  C          7.0490   -0.0120   -2.1450 C.3     1  UNL1        0.0470
      7  C          6.4940    0.1020   -0.7710 C.2     1  UNL1       -0.0470
      8  C          6.6250   -0.9410    0.1350 C.2     1  UNL1        0.0040
      9  C          5.8190    1.2250   -0.3280 C.2     1  UNL1        0.0040
     10  C          6.1130   -0.8690    1.4100 C.2     1  UNL1        0.0000
     11  C          5.3070    1.2950    0.9500 C.2     1  UNL1        0.0000
     12  C          5.4400    0.2560    1.8430 C.2     1  UNL1        0.0000
@<TRIPOS>BOND
     1     5     4    1
     2     4     2    1
     3     3     2    2
     4     2     1    1
     5     6     1    1
     6     6     7    1
     7     7     9    2
     8     7     8    1
     9     9    11    1
    10     8    10    2
    11    11    12    2
    12    10    12    1
