@<TRIPOS>MOLECULE
/home/cewinharhar/GITHUB/reincatalyze/data/processed/docking_pred/2023-Apr-25-2248_maxeplen10_maxtrainstep1000_exh16_gamma099_lrac3e-4_lrcr1e-3/dea2b8be3c05a7e32d8e1c0cb085cc688668c765_ligand_2.pdbqt
 12 12 0 0 0
SMALL
GASTEIGER

@<TRIPOS>ATOM
      1  C          5.0040    1.7890    0.6980 C.3     1  UNL1        0.1270
      2  C          4.4930    1.1290    1.9130 C.2     1  UNL1        0.3030
      3  O          5.2000    0.2490    2.4750 O.2     1  UNL1       -0.2520
      4  O          3.2460    1.4470    2.4700 O.3     1  UNL1       -0.4810
      5  H          2.9090    0.8970    3.2480 H       1  UNL1        0.2960
      6  C          6.5160    1.9190    0.7080 C.3     1  UNL1        0.0470
      7  C          7.1300    1.0820   -0.3550 C.2     1  UNL1       -0.0470
      8  C          8.4760    1.2100   -0.6680 C.2     1  UNL1        0.0040
      9  C          6.4110    0.1550   -1.0860 C.2     1  UNL1        0.0040
     10  C          9.0720    0.4570   -1.6540 C.2     1  UNL1        0.0000
     11  C          7.0090   -0.5990   -2.0730 C.2     1  UNL1        0.0000
     12  C          8.3440   -0.4650   -2.3790 C.2     1  UNL1        0.0000
@<TRIPOS>BOND
     1    12    11    2
     2    12    10    1
     3    11     9    1
     4    10     8    2
     5     9     7    2
     6     8     7    1
     7     7     6    1
     8     1     6    1
     9     1     2    1
    10     2     4    1
    11     2     3    2
    12     4     5    1
