@<TRIPOS>MOLECULE
/home/cewinharhar/GITHUB/reincatalyze/data/processed/docking_pred/2023-Apr-25-2248_maxeplen10_maxtrainstep1000_exh16_gamma099_lrac3e-4_lrcr1e-3/dea2b8be3c05a7e32d8e1c0cb085cc688668c765_ligand_2.pdbqt
 12 12 0 0 0
SMALL
GASTEIGER

@<TRIPOS>ATOM
      1  C          5.4290    2.9450    0.0690 C.3     1  UNL1        0.1270
      2  C          6.2510    3.8870    0.8500 C.2     1  UNL1        0.3030
      3  O          6.9090    4.7750    0.2430 O.2     1  UNL1       -0.2520
      4  O          6.3250    3.8320    2.2490 O.3     1  UNL1       -0.4810
      5  H          6.0430    2.9800    2.7150 H       1  UNL1        0.2960
      6  C          4.9580    1.7670    0.9030 C.3     1  UNL1        0.0470
      7  C          5.8100    0.5730    0.6660 C.2     1  UNL1       -0.0470
      8  C          6.4120    0.3660   -0.5670 C.2     1  UNL1        0.0040
      9  C          6.0390   -0.3870    1.6350 C.2     1  UNL1        0.0040
     10  C          7.1970   -0.7350   -0.8210 C.2     1  UNL1        0.0000
     11  C          6.8260   -1.4890    1.3790 C.2     1  UNL1        0.0000
     12  C          7.4190   -1.6880    0.1530 C.2     1  UNL1        0.0000
@<TRIPOS>BOND
     1    10     8    1
     2    10    12    2
     3     8     7    2
     4     1     2    1
     5     1     6    1
     6    12    11    1
     7     3     2    2
     8     7     6    1
     9     7     9    1
    10     2     4    1
    11    11     9    2
    12     4     5    1
