@<TRIPOS>MOLECULE
/home/cewinharhar/GITHUB/reincatalyze/data/processed/docking_pred/2023-Apr-25-2248_maxeplen10_maxtrainstep1000_exh16_gamma099_lrac3e-4_lrcr1e-3/dea2b8be3c05a7e32d8e1c0cb085cc688668c765_ligand_2.pdbqt
 12 12 0 0 0
SMALL
GASTEIGER

@<TRIPOS>ATOM
      1  C          8.4030   -0.6510   -2.1340 C.3     1  UNL1        0.1270
      2  C          8.4090   -1.9140   -2.8930 C.2     1  UNL1        0.3030
      3  O          7.3090   -2.4310   -3.2310 O.2     1  UNL1       -0.2520
      4  O          9.5980   -2.5630   -3.2550 O.3     1  UNL1       -0.4810
      5  H         10.1610   -2.9830   -2.5270 H       1  UNL1        0.2960
      6  C          7.0360    0.0100   -2.1310 C.3     1  UNL1        0.0470
      7  C          6.4810    0.0780   -0.7540 C.2     1  UNL1       -0.0470
      8  C          5.8190    1.2150   -0.3130 C.2     1  UNL1        0.0040
      9  C          6.5970   -0.9610    0.1520 C.2     1  UNL1        0.0040
     10  C          5.3030    1.3120    0.9590 C.2     1  UNL1        0.0000
     11  C          6.0800   -0.8610    1.4260 C.2     1  UNL1        0.0000
     12  C          5.4250    0.2710    1.8560 C.2     1  UNL1        0.0000
@<TRIPOS>BOND
     1     4     2    1
     2     4     5    1
     3     3     2    2
     4     2     1    1
     5     1     6    1
     6     6     7    1
     7     7     8    2
     8     7     9    1
     9     8    10    1
    10     9    11    2
    11    10    12    2
    12    11    12    1
