@<TRIPOS>MOLECULE
/home/cewinharhar/GITHUB/reincatalyze/data/processed/docking_pred/2023-Apr-25-2248_maxeplen10_maxtrainstep1000_exh16_gamma099_lrac3e-4_lrcr1e-3/dea2b8be3c05a7e32d8e1c0cb085cc688668c765_ligand_2.pdbqt
 12 12 0 0 0
SMALL
GASTEIGER

@<TRIPOS>ATOM
      1  C          8.0660   -1.6570    1.2150 C.3     1  UNL1        0.1270
      2  C          8.4710   -2.7980    0.3750 C.2     1  UNL1        0.3030
      3  O          9.1820   -3.7090    0.8800 O.2     1  UNL1       -0.2520
      4  O          8.0910   -2.9080   -0.9710 O.3     1  UNL1       -0.4810
      5  H          8.1920   -2.0990   -1.5690 H       1  UNL1        0.2960
      6  C          6.5570   -1.5460    1.3440 C.3     1  UNL1        0.0470
      7  C          6.0710   -0.2460    0.8130 C.2     1  UNL1       -0.0470
      8  C          6.3470    0.1330   -0.4930 C.2     1  UNL1        0.0040
      9  C          5.3420    0.6480    1.5750 C.2     1  UNL1        0.0040
     10  C          5.9210    1.3350   -1.0110 C.2     1  UNL1        0.0000
     11  C          4.9150    1.8510    1.0550 C.2     1  UNL1        0.0000
     12  C          5.1940    2.2200   -0.2410 C.2     1  UNL1        0.0000
@<TRIPOS>BOND
     1     5     4    1
     2    10     8    1
     3    10    12    2
     4     4     2    1
     5     8     7    2
     6    12    11    1
     7     2     3    2
     8     2     1    1
     9     7     6    1
    10     7     9    1
    11    11     9    2
    12     1     6    1
