@<TRIPOS>MOLECULE
/home/cewinharhar/GITHUB/reincatalyze/data/processed/docking_pred/2023-Apr-25-2248_maxeplen10_maxtrainstep1000_exh16_gamma099_lrac3e-4_lrcr1e-3/df357a1c250a0cea862119ec51667dccc9d8d697_ligand_2.pdbqt
 12 12 0 0 0
SMALL
GASTEIGER

@<TRIPOS>ATOM
      1  C          8.4240   -0.6720   -2.1130 C.3     1  UNL1        0.1270
      2  C          8.4110   -1.9310   -2.8780 C.2     1  UNL1        0.3030
      3  O          7.3040   -2.4200   -3.2330 O.2     1  UNL1       -0.2520
      4  O          9.5890   -2.6070   -3.2270 O.3     1  UNL1       -0.4810
      5  H          9.5200   -3.4300   -3.8100 H       1  UNL1        0.2960
      6  C          7.0800    0.0330   -2.1460 C.3     1  UNL1        0.0470
      7  C          6.5030    0.1430   -0.7810 C.2     1  UNL1       -0.0470
      8  C          6.6440   -0.8920    0.1330 C.2     1  UNL1        0.0040
      9  C          5.7980    1.2540   -0.3530 C.2     1  UNL1        0.0040
     10  C          6.1130   -0.8250    1.4000 C.2     1  UNL1        0.0000
     11  C          5.2670    1.3190    0.9170 C.2     1  UNL1        0.0000
     12  C          5.4100    0.2870    1.8170 C.2     1  UNL1        0.0000
@<TRIPOS>BOND
     1     5     4    1
     2     3     2    2
     3     4     2    1
     4     2     1    1
     5     6     1    1
     6     6     7    1
     7     7     9    2
     8     7     8    1
     9     9    11    1
    10     8    10    2
    11    11    12    2
    12    10    12    1
