@<TRIPOS>MOLECULE
/home/cewinharhar/GITHUB/reincatalyze/data/processed/docking_pred/2023-Apr-25-2248_maxeplen10_maxtrainstep1000_exh16_gamma099_lrac3e-4_lrcr1e-3/df357a1c250a0cea862119ec51667dccc9d8d697_ligand_2.pdbqt
 12 12 0 0 0
SMALL
GASTEIGER

@<TRIPOS>ATOM
      1  C          5.0260    1.7990    0.7420 C.3     1  UNL1        0.1270
      2  C          4.4750    1.1190    1.9270 C.2     1  UNL1        0.3030
      3  O          5.1440    0.1980    2.4710 O.2     1  UNL1       -0.2520
      4  O          3.2300    1.4600    2.4750 O.3     1  UNL1       -0.4810
      5  H          2.4920    0.7690    2.4650 H       1  UNL1        0.2960
      6  C          6.5410    1.8930    0.7870 C.3     1  UNL1        0.0470
      7  C          7.1560    1.1060   -0.3140 C.2     1  UNL1       -0.0470
      8  C          6.4020    0.1930   -1.0380 C.2     1  UNL1        0.0040
      9  C          8.4880    1.2260   -0.6670 C.2     1  UNL1        0.0040
     10  C          6.9440   -0.5580   -2.0560 C.2     1  UNL1        0.0000
     11  C          9.0290    0.4730   -1.6860 C.2     1  UNL1        0.0000
     12  C          8.2750   -0.4310   -2.3990 C.2     1  UNL1        0.0000
@<TRIPOS>BOND
     1    12    10    2
     2    12    11    1
     3    10     8    1
     4    11     9    2
     5     8     7    2
     6     9     7    1
     7     7     6    1
     8     1     6    1
     9     1     2    1
    10     2     3    2
    11     2     4    1
    12     5     4    1
