@<TRIPOS>MOLECULE
/home/cewinharhar/GITHUB/reincatalyze/data/processed/docking_pred/2023-Apr-25-2248_maxeplen10_maxtrainstep1000_exh16_gamma099_lrac3e-4_lrcr1e-3/df357a1c250a0cea862119ec51667dccc9d8d697_ligand_2.pdbqt
 12 12 0 0 0
SMALL
GASTEIGER

@<TRIPOS>ATOM
      1  C          8.1640   -1.6740    1.1780 C.3     1  UNL1        0.1270
      2  C          8.5070   -2.8420    0.3480 C.2     1  UNL1        0.3030
      3  O          9.1940   -3.7710    0.8520 O.2     1  UNL1       -0.2520
      4  O          8.0930   -2.9580   -0.9870 O.3     1  UNL1       -0.4810
      5  H          7.2250   -2.5190   -1.2640 H       1  UNL1        0.2960
      6  C          6.6680   -1.5530    1.4090 C.3     1  UNL1        0.0470
      7  C          6.1460   -0.2760    0.8570 C.2     1  UNL1       -0.0470
      8  C          6.4090    0.0890   -0.4550 C.2     1  UNL1        0.0040
      9  C          5.3910    0.6100    1.6050 C.2     1  UNL1        0.0040
     10  C          5.9490    1.2690   -0.9930 C.2     1  UNL1        0.0000
     11  C          4.9310    1.7920    1.0660 C.2     1  UNL1        0.0000
     12  C          5.1980    2.1470   -0.2370 C.2     1  UNL1        0.0000
@<TRIPOS>BOND
     1     5     4    1
     2    10     8    1
     3    10    12    2
     4     4     2    1
     5     8     7    2
     6    12    11    1
     7     2     3    2
     8     2     1    1
     9     7     6    1
    10     7     9    1
    11    11     9    2
    12     1     6    1
