@<TRIPOS>MOLECULE
/home/cewinharhar/GITHUB/reincatalyze/data/processed/docking_pred/2023-Apr-25-2248_maxeplen10_maxtrainstep1000_exh16_gamma099_lrac3e-4_lrcr1e-3/df357a1c250a0cea862119ec51667dccc9d8d697_ligand_2.pdbqt
 12 12 0 0 0
SMALL
GASTEIGER

@<TRIPOS>ATOM
      1  C          8.3800   -0.6180   -2.1680 C.3     1  UNL1        0.1270
      2  C          8.3830   -1.8990   -2.8960 C.2     1  UNL1        0.3030
      3  O          7.2830   -2.4050   -3.2490 O.2     1  UNL1       -0.2520
      4  O          9.5690   -2.5760   -3.2130 O.3     1  UNL1       -0.4810
      5  H         10.1680   -2.1920   -3.9310 H       1  UNL1        0.2960
      6  C          7.0060    0.0290   -2.1500 C.3     1  UNL1        0.0470
      7  C          6.4670    0.0950   -0.7670 C.2     1  UNL1       -0.0470
      8  C          5.7800    1.2180   -0.3290 C.2     1  UNL1        0.0040
      9  C          6.6220   -0.9310    0.1470 C.2     1  UNL1        0.0040
     10  C          5.2770    1.3140    0.9490 C.2     1  UNL1        0.0000
     11  C          6.1180   -0.8330    1.4260 C.2     1  UNL1        0.0000
     12  C          5.4390    0.2850    1.8540 C.2     1  UNL1        0.0000
@<TRIPOS>BOND
     1     5     4    1
     2     3     2    2
     3     4     2    1
     4     2     1    1
     5     1     6    1
     6     6     7    1
     7     7     8    2
     8     7     9    1
     9     8    10    1
    10     9    11    2
    11    10    12    2
    12    11    12    1
