@<TRIPOS>MOLECULE
/home/cewinharhar/GITHUB/reincatalyze/data/processed/docking_pred/2023-Apr-25-2248_maxeplen10_maxtrainstep1000_exh16_gamma099_lrac3e-4_lrcr1e-3/df357a1c250a0cea862119ec51667dccc9d8d697_ligand_2.pdbqt
 12 12 0 0 0
SMALL
GASTEIGER

@<TRIPOS>ATOM
      1  C          7.7640   -1.4340   -1.9740 C.3     1  UNL1        0.1270
      2  C          8.5670   -2.5590   -2.4850 C.2     1  UNL1        0.3030
      3  O          8.3170   -3.7250   -2.0750 O.2     1  UNL1       -0.2520
      4  O          9.6000   -2.3780   -3.4150 O.3     1  UNL1       -0.4810
      5  H         10.4350   -1.8890   -3.1220 H       1  UNL1        0.2960
      6  C          7.4940   -1.5510   -0.4850 C.3     1  UNL1        0.0470
      7  C          6.6290   -0.4390   -0.0110 C.2     1  UNL1       -0.0470
      8  C          6.3250    0.6260   -0.8460 C.2     1  UNL1        0.0040
      9  C          6.0970   -0.3960    1.2650 C.2     1  UNL1        0.0040
     10  C          5.5360    1.6760   -0.4340 C.2     1  UNL1        0.0000
     11  C          5.3080    0.6560    1.6770 C.2     1  UNL1        0.0000
     12  C          5.0110    1.7100    0.8420 C.2     1  UNL1        0.0000
@<TRIPOS>BOND
     1     4     5    1
     2     4     2    1
     3     2     3    2
     4     2     1    1
     5     1     6    1
     6     8    10    1
     7     8     7    2
     8     6     7    1
     9    10    12    2
    10     7     9    1
    11    12    11    1
    12     9    11    2
