MODEL 1
REMARK VINA RESULT:      -7.2      0.000      0.000
REMARK SMILES O=C(O)CCc1ccccc1
REMARK SMILES IDX 4 1 2 2 1 3 3 4 5 6 6 7 7 8 11 9 8 10 10 11 9 12
REMARK H PARENT 3 5
REMARK Flexibility Score: inf
ROOT
ATOM      1  C   UNL     1       8.424  -0.672  -2.113  1.00  0.00     0.127 C 
ENDROOT
BRANCH   1   2
ATOM      2  C   UNL     1       8.411  -1.931  -2.878  1.00  0.00     0.303 C 
ATOM      3  O   UNL     1       7.304  -2.420  -3.233  1.00  0.00    -0.252 OA
BRANCH   2   4
ATOM      4  O   UNL     1       9.589  -2.607  -3.227  1.00  0.00    -0.481 OA
ATOM      5  H   UNL     1       9.520  -3.430  -3.810  1.00  0.00     0.296 HD
ENDBRANCH   2   4
ENDBRANCH   1   2
BRANCH   1   6
ATOM      6  C   UNL     1       7.080   0.033  -2.146  1.00  0.00     0.047 C 
BRANCH   6   7
ATOM      7  C   UNL     1       6.503   0.143  -0.781  1.00  0.00    -0.047 A 
ATOM      8  C   UNL     1       6.644  -0.892   0.133  1.00  0.00     0.004 A 
ATOM      9  C   UNL     1       5.798   1.254  -0.353  1.00  0.00     0.004 A 
ATOM     10  C   UNL     1       6.113  -0.825   1.400  1.00  0.00     0.000 A 
ATOM     11  C   UNL     1       5.267   1.319   0.917  1.00  0.00     0.000 A 
ATOM     12  C   UNL     1       5.410   0.287   1.817  1.00  0.00     0.000 A 
ENDBRANCH   6   7
ENDBRANCH   1   6
TORSDOF 4
ENDMDL
MODEL 2
REMARK VINA RESULT:      -7.2      0.053      1.422
REMARK SMILES O=C(O)CCc1ccccc1
REMARK SMILES IDX 4 1 2 2 1 3 3 4 5 6 6 7 7 8 11 9 8 10 10 11 9 12
REMARK H PARENT 3 5
REMARK Flexibility Score: inf
ROOT
ATOM      1  C   UNL     1       8.380  -0.618  -2.168  1.00  0.00     0.127 C 
ENDROOT
BRANCH   1   2
ATOM      2  C   UNL     1       8.383  -1.899  -2.896  1.00  0.00     0.303 C 
ATOM      3  O   UNL     1       7.283  -2.405  -3.249  1.00  0.00    -0.252 OA
BRANCH   2   4
ATOM      4  O   UNL     1       9.569  -2.576  -3.213  1.00  0.00    -0.481 OA
ATOM      5  H   UNL     1      10.168  -2.192  -3.931  1.00  0.00     0.296 HD
ENDBRANCH   2   4
ENDBRANCH   1   2
BRANCH   1   6
ATOM      6  C   UNL     1       7.006   0.029  -2.150  1.00  0.00     0.047 C 
BRANCH   6   7
ATOM      7  C   UNL     1       6.467   0.095  -0.767  1.00  0.00    -0.047 A 
ATOM      8  C   UNL     1       5.780   1.218  -0.329  1.00  0.00     0.004 A 
ATOM      9  C   UNL     1       6.622  -0.931   0.147  1.00  0.00     0.004 A 
ATOM     10  C   UNL     1       5.277   1.314   0.949  1.00  0.00     0.000 A 
ATOM     11  C   UNL     1       6.118  -0.833   1.426  1.00  0.00     0.000 A 
ATOM     12  C   UNL     1       5.439   0.285   1.854  1.00  0.00     0.000 A 
ENDBRANCH   6   7
ENDBRANCH   1   6
TORSDOF 4
ENDMDL
MODEL 3
REMARK VINA RESULT:      -6.8      0.940      1.785
REMARK SMILES O=C(O)CCc1ccccc1
REMARK SMILES IDX 4 1 2 2 1 3 3 4 5 6 6 7 7 8 11 9 8 10 10 11 9 12
REMARK H PARENT 3 5
REMARK Flexibility Score: inf
ROOT
ATOM      1  C   UNL     1       7.764  -1.434  -1.974  1.00  0.00     0.127 C 
ENDROOT
BRANCH   1   2
ATOM      2  C   UNL     1       8.567  -2.559  -2.485  1.00  0.00     0.303 C 
ATOM      3  O   UNL     1       8.317  -3.725  -2.075  1.00  0.00    -0.252 OA
BRANCH   2   4
ATOM      4  O   UNL     1       9.600  -2.378  -3.415  1.00  0.00    -0.481 OA
ATOM      5  H   UNL     1      10.435  -1.889  -3.122  1.00  0.00     0.296 HD
ENDBRANCH   2   4
ENDBRANCH   1   2
BRANCH   1   6
ATOM      6  C   UNL     1       7.494  -1.551  -0.485  1.00  0.00     0.047 C 
BRANCH   6   7
ATOM      7  C   UNL     1       6.629  -0.439  -0.011  1.00  0.00    -0.047 A 
ATOM      8  C   UNL     1       6.325   0.626  -0.846  1.00  0.00     0.004 A 
ATOM      9  C   UNL     1       6.097  -0.396   1.265  1.00  0.00     0.004 A 
ATOM     10  C   UNL     1       5.536   1.676  -0.434  1.00  0.00     0.000 A 
ATOM     11  C   UNL     1       5.308   0.656   1.677  1.00  0.00     0.000 A 
ATOM     12  C   UNL     1       5.011   1.710   0.842  1.00  0.00     0.000 A 
ENDBRANCH   6   7
ENDBRANCH   1   6
TORSDOF 4
ENDMDL
MODEL 4
REMARK VINA RESULT:      -6.8      3.321      5.152
REMARK SMILES O=C(O)CCc1ccccc1
REMARK SMILES IDX 4 1 2 2 1 3 3 4 5 6 6 7 7 8 11 9 8 10 10 11 9 12
REMARK H PARENT 3 5
REMARK Flexibility Score: inf
ROOT
ATOM      1  C   UNL     1       5.026   1.799   0.742  1.00  0.00     0.127 C 
ENDROOT
BRANCH   1   2
ATOM      2  C   UNL     1       4.475   1.119   1.927  1.00  0.00     0.303 C 
ATOM      3  O   UNL     1       5.144   0.198   2.471  1.00  0.00    -0.252 OA
BRANCH   2   4
ATOM      4  O   UNL     1       3.230   1.460   2.475  1.00  0.00    -0.481 OA
ATOM      5  H   UNL     1       2.492   0.769   2.465  1.00  0.00     0.296 HD
ENDBRANCH   2   4
ENDBRANCH   1   2
BRANCH   1   6
ATOM      6  C   UNL     1       6.541   1.893   0.787  1.00  0.00     0.047 C 
BRANCH   6   7
ATOM      7  C   UNL     1       7.156   1.106  -0.314  1.00  0.00    -0.047 A 
ATOM      8  C   UNL     1       6.402   0.193  -1.038  1.00  0.00     0.004 A 
ATOM      9  C   UNL     1       8.488   1.226  -0.667  1.00  0.00     0.004 A 
ATOM     10  C   UNL     1       6.944  -0.558  -2.056  1.00  0.00     0.000 A 
ATOM     11  C   UNL     1       9.029   0.473  -1.686  1.00  0.00     0.000 A 
ATOM     12  C   UNL     1       8.275  -0.431  -2.399  1.00  0.00     0.000 A 
ENDBRANCH   6   7
ENDBRANCH   1   6
TORSDOF 4
ENDMDL
MODEL 5
REMARK VINA RESULT:      -6.6      1.886      2.938
REMARK SMILES O=C(O)CCc1ccccc1
REMARK SMILES IDX 4 1 2 2 1 3 3 4 5 6 6 7 7 8 11 9 8 10 10 11 9 12
REMARK H PARENT 3 5
REMARK Flexibility Score: inf
ROOT
ATOM      1  C   UNL     1       8.164  -1.674   1.178  1.00  0.00     0.127 C 
ENDROOT
BRANCH   1   2
ATOM      2  C   UNL     1       8.507  -2.842   0.348  1.00  0.00     0.303 C 
ATOM      3  O   UNL     1       9.194  -3.771   0.852  1.00  0.00    -0.252 OA
BRANCH   2   4
ATOM      4  O   UNL     1       8.093  -2.958  -0.987  1.00  0.00    -0.481 OA
ATOM      5  H   UNL     1       7.225  -2.519  -1.264  1.00  0.00     0.296 HD
ENDBRANCH   2   4
ENDBRANCH   1   2
BRANCH   1   6
ATOM      6  C   UNL     1       6.668  -1.553   1.409  1.00  0.00     0.047 C 
BRANCH   6   7
ATOM      7  C   UNL     1       6.146  -0.276   0.857  1.00  0.00    -0.047 A 
ATOM      8  C   UNL     1       6.409   0.089  -0.455  1.00  0.00     0.004 A 
ATOM      9  C   UNL     1       5.391   0.610   1.605  1.00  0.00     0.004 A 
ATOM     10  C   UNL     1       5.949   1.269  -0.993  1.00  0.00     0.000 A 
ATOM     11  C   UNL     1       4.931   1.792   1.066  1.00  0.00     0.000 A 
ATOM     12  C   UNL     1       5.198   2.147  -0.237  1.00  0.00     0.000 A 
ENDBRANCH   6   7
ENDBRANCH   1   6
TORSDOF 4
ENDMDL
