@<TRIPOS>MOLECULE
/home/cewinharhar/GITHUB/reincatalyze/data/processed/docking_pred/2023-Apr-25-2248_maxeplen10_maxtrainstep1000_exh16_gamma099_lrac3e-4_lrcr1e-3/e1ac879641feb84a16575019a922afe40680d27c_ligand_2.pdbqt
 12 12 0 0 0
SMALL
GASTEIGER

@<TRIPOS>ATOM
      1  C          8.4240   -0.6170   -2.1870 C.3     1  UNL1        0.1270
      2  C          8.4770   -1.8980   -2.9130 C.2     1  UNL1        0.3030
      3  O          9.5920   -2.4610   -3.0810 O.2     1  UNL1       -0.2520
      4  O          7.3260   -2.5150   -3.4240 O.3     1  UNL1       -0.4810
      5  H          7.3000   -2.7510   -4.4070 H       1  UNL1        0.2960
      6  C          7.0280   -0.0210   -2.1740 C.3     1  UNL1        0.0470
      7  C          6.5060    0.0810   -0.7860 C.2     1  UNL1       -0.0470
      8  C          6.6230   -0.9850    0.0950 C.2     1  UNL1        0.0040
      9  C          5.8780    1.2150   -0.3040 C.2     1  UNL1        0.0040
     10  C          6.1410   -0.9250    1.3820 C.2     1  UNL1        0.0000
     11  C          5.3960    1.2740    0.9860 C.2     1  UNL1        0.0000
     12  C          5.5140    0.2120    1.8530 C.2     1  UNL1        0.0000
@<TRIPOS>BOND
     1     5     4    1
     2     4     2    1
     3     3     2    2
     4     2     1    1
     5     1     6    1
     6     6     7    1
     7     7     9    2
     8     7     8    1
     9     9    11    1
    10     8    10    2
    11    11    12    2
    12    10    12    1
