@<TRIPOS>MOLECULE
/home/cewinharhar/GITHUB/reincatalyze/data/processed/docking_pred/2023-Apr-25-2248_maxeplen10_maxtrainstep1000_exh16_gamma099_lrac3e-4_lrcr1e-3/e1ac879641feb84a16575019a922afe40680d27c_ligand_2.pdbqt
 12 12 0 0 0
SMALL
GASTEIGER

@<TRIPOS>ATOM
      1  C          8.2110   -1.6890    1.1330 C.3     1  UNL1        0.1270
      2  C          8.5400   -2.8790    0.3300 C.2     1  UNL1        0.3030
      3  O          9.2130   -3.8070    0.8560 O.2     1  UNL1       -0.2520
      4  O          8.1270   -3.0190   -1.0030 O.3     1  UNL1       -0.4810
      5  H          7.7840   -2.2030   -1.4910 H       1  UNL1        0.2960
      6  C          6.7230   -1.5740    1.4080 C.3     1  UNL1        0.0470
      7  C          6.1780   -0.3020    0.8670 C.2     1  UNL1       -0.0470
      8  C          6.4330    0.0780   -0.4430 C.2     1  UNL1        0.0040
      9  C          5.4100    0.5650    1.6240 C.2     1  UNL1        0.0040
     10  C          5.9520    1.2540   -0.9700 C.2     1  UNL1        0.0000
     11  C          4.9280    1.7430    1.0940 C.2     1  UNL1        0.0000
     12  C          5.1870    2.1130   -0.2060 C.2     1  UNL1        0.0000
@<TRIPOS>BOND
     1     5     4    1
     2     4     2    1
     3    10     8    1
     4    10    12    2
     5     8     7    2
     6    12    11    1
     7     2     3    2
     8     2     1    1
     9     7     6    1
    10     7     9    1
    11    11     9    2
    12     1     6    1
