@<TRIPOS>MOLECULE
/home/cewinharhar/GITHUB/reincatalyze/data/processed/docking_pred/2023-Apr-25-2248_maxeplen10_maxtrainstep1000_exh16_gamma099_lrac3e-4_lrcr1e-3/e1ac879641feb84a16575019a922afe40680d27c_ligand_2.pdbqt
 12 12 0 0 0
SMALL
GASTEIGER

@<TRIPOS>ATOM
      1  C          5.0150    1.7990    0.7340 C.3     1  UNL1        0.1270
      2  C          4.4730    1.1200    1.9240 C.2     1  UNL1        0.3030
      3  O          5.1490    0.2050    2.4680 O.2     1  UNL1       -0.2520
      4  O          3.2290    1.4580    2.4770 O.3     1  UNL1       -0.4810
      5  H          3.0830    1.3090    3.4660 H       1  UNL1        0.2960
      6  C          6.5290    1.9060    0.7730 C.3     1  UNL1        0.0470
      7  C          7.1470    1.1110   -0.3200 C.2     1  UNL1       -0.0470
      8  C          6.3940    0.2000   -1.0470 C.2     1  UNL1        0.0040
      9  C          8.4820    1.2230   -0.6630 C.2     1  UNL1        0.0040
     10  C          6.9400   -0.5570   -2.0580 C.2     1  UNL1        0.0000
     11  C          9.0270    0.4630   -1.6760 C.2     1  UNL1        0.0000
     12  C          8.2740   -0.4390   -2.3920 C.2     1  UNL1        0.0000
@<TRIPOS>BOND
     1    12    10    2
     2    12    11    1
     3    10     8    1
     4    11     9    2
     5     8     7    2
     6     9     7    1
     7     7     6    1
     8     1     6    1
     9     1     2    1
    10     2     3    2
    11     2     4    1
    12     4     5    1
