@<TRIPOS>MOLECULE
/home/cewinharhar/GITHUB/reincatalyze/data/processed/docking_pred/2023-Apr-25-2248_maxeplen10_maxtrainstep1000_exh16_gamma099_lrac3e-4_lrcr1e-3/e1ac879641feb84a16575019a922afe40680d27c_ligand_2.pdbqt
 12 12 0 0 0
SMALL
GASTEIGER

@<TRIPOS>ATOM
      1  C          8.3670   -0.6050   -2.1780 C.3     1  UNL1        0.1270
      2  C          8.3710   -1.8850   -2.9070 C.2     1  UNL1        0.3030
      3  O          7.2710   -2.3970   -3.2530 O.2     1  UNL1       -0.2520
      4  O          9.5580   -2.5560   -3.2330 O.3     1  UNL1       -0.4810
      5  H          9.5290   -3.2730   -3.9450 H       1  UNL1        0.2960
      6  C          6.9900    0.0350   -2.1490 C.3     1  UNL1        0.0470
      7  C          6.4620    0.0990   -0.7610 C.2     1  UNL1       -0.0470
      8  C          5.7820    1.2230   -0.3140 C.2     1  UNL1        0.0040
      9  C          6.6220   -0.9300    0.1490 C.2     1  UNL1        0.0040
     10  C          5.2900    1.3170    0.9680 C.2     1  UNL1        0.0000
     11  C          6.1280   -0.8340    1.4320 C.2     1  UNL1        0.0000
     12  C          5.4560    0.2850    1.8690 C.2     1  UNL1        0.0000
@<TRIPOS>BOND
     1     5     4    1
     2     3     2    2
     3     4     2    1
     4     2     1    1
     5     1     6    1
     6     6     7    1
     7     7     8    2
     8     7     9    1
     9     8    10    1
    10     9    11    2
    11    10    12    2
    12    11    12    1
