@<TRIPOS>MOLECULE
/home/cewinharhar/GITHUB/reincatalyze/data/processed/docking_pred/2023-Apr-25-2248_maxeplen10_maxtrainstep1000_exh16_gamma099_lrac3e-4_lrcr1e-3/e1ac879641feb84a16575019a922afe40680d27c_ligand_2.pdbqt
 12 12 0 0 0
SMALL
GASTEIGER

@<TRIPOS>ATOM
      1  C          8.2780    0.2640   -2.1700 C.3     1  UNL1        0.1270
      2  C          9.4090    0.3940   -1.2330 C.2     1  UNL1        0.3030
      3  O          9.4750   -0.3830   -0.2420 O.2     1  UNL1       -0.2520
      4  O         10.4180    1.3520   -1.4070 O.3     1  UNL1       -0.4810
      5  H         10.4100    2.1740   -0.8180 H       1  UNL1        0.2960
      6  C          7.1380   -0.5490   -1.5830 C.3     1  UNL1        0.0470
      7  C          6.3560    0.2560   -0.6090 C.2     1  UNL1       -0.0470
      8  C          6.1380   -0.2090    0.6800 C.2     1  UNL1        0.0040
      9  C          5.8030    1.4830   -0.9260 C.2     1  UNL1        0.0040
     10  C          5.4090    0.5080    1.6010 C.2     1  UNL1        0.0000
     11  C          5.0740    2.2000   -0.0020 C.2     1  UNL1        0.0000
     12  C          4.8610    1.7320    1.2750 C.2     1  UNL1        0.0000
@<TRIPOS>BOND
     1     1     6    1
     2     1     2    1
     3     6     7    1
     4     4     2    1
     5     4     5    1
     6     2     3    2
     7     9     7    2
     8     9    11    1
     9     7     8    1
    10    11    12    2
    11     8    10    2
    12    12    10    1
