@<TRIPOS>MOLECULE
/home/cewinharhar/GITHUB/reincatalyze/data/processed/docking_pred/2023-Apr-25-2248_maxeplen10_maxtrainstep1000_exh16_gamma099_lrac3e-4_lrcr1e-3/e3e0f9713a2c6d1770d60d03407d62bfa70f046f_ligand_2.pdbqt
 12 12 0 0 0
SMALL
GASTEIGER

@<TRIPOS>ATOM
      1  C          5.0090    1.7660    0.7180 C.3     1  UNL1        0.1270
      2  C          4.4750    1.1050    1.9220 C.2     1  UNL1        0.3030
      3  O          5.1540    0.1970    2.4740 O.2     1  UNL1       -0.2520
      4  O          3.2350    1.4520    2.4780 O.3     1  UNL1       -0.4810
      5  H          2.4700    1.6700    1.8540 H       1  UNL1        0.2960
      6  C          6.5210    1.8980    0.7590 C.3     1  UNL1        0.0470
      7  C          7.1540    1.1100   -0.3310 C.2     1  UNL1       -0.0470
      8  C          6.4100    0.2050   -1.0740 C.2     1  UNL1        0.0040
      9  C          8.4940    1.2220   -0.6540 C.2     1  UNL1        0.0040
     10  C          6.9700   -0.5470   -2.0820 C.2     1  UNL1        0.0000
     11  C          9.0530    0.4680   -1.6630 C.2     1  UNL1        0.0000
     12  C          8.3080   -0.4280   -2.3960 C.2     1  UNL1        0.0000
@<TRIPOS>BOND
     1    12    10    2
     2    12    11    1
     3    10     8    1
     4    11     9    2
     5     8     7    2
     6     9     7    1
     7     7     6    1
     8     1     6    1
     9     1     2    1
    10     5     4    1
    11     2     3    2
    12     2     4    1
