@<TRIPOS>MOLECULE
/home/cewinharhar/GITHUB/reincatalyze/data/processed/docking_pred/2023-Apr-25-2248_maxeplen10_maxtrainstep1000_exh16_gamma099_lrac3e-4_lrcr1e-3/e3e0f9713a2c6d1770d60d03407d62bfa70f046f_ligand_2.pdbqt
 12 12 0 0 0
SMALL
GASTEIGER

@<TRIPOS>ATOM
      1  C          8.2350    0.0880   -2.2020 C.3     1  UNL1        0.1270
      2  C          9.3340    0.3390   -1.2530 C.2     1  UNL1        0.3030
      3  O          9.4530   -0.4070   -0.2430 O.2     1  UNL1       -0.2520
      4  O         10.2570    1.3790   -1.4350 O.3     1  UNL1       -0.4810
      5  H         11.1980    1.1460   -1.7200 H       1  UNL1        0.2960
      6  C          7.0890   -0.6770   -1.5640 C.3     1  UNL1        0.0470
      7  C          6.3300    0.1870   -0.6230 C.2     1  UNL1       -0.0470
      8  C          5.8260    1.4130   -1.0370 C.2     1  UNL1        0.0040
      9  C          6.0940   -0.1650    0.6930 C.2     1  UNL1        0.0040
     10  C          5.1290    2.2400   -0.1880 C.2     1  UNL1        0.0000
     11  C          5.3950    0.6650    1.5430 C.2     1  UNL1        0.0000
     12  C          4.9000    1.8790    1.1250 C.2     1  UNL1        0.0000
@<TRIPOS>BOND
     1     1     6    1
     2     1     2    1
     3     5     4    1
     4     6     7    1
     5     4     2    1
     6     2     3    2
     7     8     7    2
     8     8    10    1
     9     7     9    1
    10    10    12    2
    11     9    11    2
    12    12    11    1
