@<TRIPOS>MOLECULE
/home/cewinharhar/GITHUB/reincatalyze/data/processed/docking_pred/2023-Apr-25-2248_maxeplen10_maxtrainstep1000_exh16_gamma099_lrac3e-4_lrcr1e-3/e3e0f9713a2c6d1770d60d03407d62bfa70f046f_ligand_2.pdbqt
 12 12 0 0 0
SMALL
GASTEIGER

@<TRIPOS>ATOM
      1  C          8.4160   -0.6010   -2.2060 C.3     1  UNL1        0.1270
      2  C          8.4590   -1.8890   -2.9210 C.2     1  UNL1        0.3030
      3  O          9.5710   -2.4570   -3.0920 O.2     1  UNL1       -0.2520
      4  O          7.3030   -2.5060   -3.4190 O.3     1  UNL1       -0.4810
      5  H          6.6390   -2.8930   -2.7610 H       1  UNL1        0.2960
      6  C          7.0210   -0.0010   -2.1880 C.3     1  UNL1        0.0470
      7  C          6.4910    0.0740   -0.8010 C.2     1  UNL1       -0.0470
      8  C          5.8570    1.2210   -0.3470 C.2     1  UNL1        0.0040
      9  C          6.6050   -0.9690    0.1000 C.2     1  UNL1        0.0040
     10  C          5.3650    1.3250    0.9340 C.2     1  UNL1        0.0000
     11  C          6.1110   -0.8630    1.3830 C.2     1  UNL1        0.0000
     12  C          5.4850    0.2790    1.8270 C.2     1  UNL1        0.0000
@<TRIPOS>BOND
     1     4     2    1
     2     4     5    1
     3     3     2    2
     4     2     1    1
     5     1     6    1
     6     6     7    1
     7     7     8    2
     8     7     9    1
     9     8    10    1
    10     9    11    2
    11    10    12    2
    12    11    12    1
