@<TRIPOS>MOLECULE
/home/cewinharhar/GITHUB/reincatalyze/data/processed/docking_pred/2023-Apr-25-2248_maxeplen10_maxtrainstep1000_exh16_gamma099_lrac3e-4_lrcr1e-3/e3e0f9713a2c6d1770d60d03407d62bfa70f046f_ligand_2.pdbqt
 12 12 0 0 0
SMALL
GASTEIGER

@<TRIPOS>ATOM
      1  C          8.3790   -0.6400   -2.1380 C.3     1  UNL1        0.1270
      2  C          8.3850   -1.9000   -2.9020 C.2     1  UNL1        0.3030
      3  O          7.2860   -2.4110   -3.2500 O.2     1  UNL1       -0.2520
      4  O          9.5740   -2.5520   -3.2590 O.3     1  UNL1       -0.4810
      5  H          9.6060   -3.5610   -3.2100 H       1  UNL1        0.2960
      6  C          7.0130    0.0220   -2.1340 C.3     1  UNL1        0.0470
      7  C          6.4690    0.1130   -0.7540 C.2     1  UNL1       -0.0470
      8  C          6.6040   -0.9470    0.1310 C.2     1  UNL1        0.0040
      9  C          5.8040    1.2310   -0.2840 C.2     1  UNL1        0.0040
     10  C          6.1030   -0.8980    1.4120 C.2     1  UNL1        0.0000
     11  C          5.3030    1.2790    0.9990 C.2     1  UNL1        0.0000
     12  C          5.4390    0.2220    1.8710 C.2     1  UNL1        0.0000
@<TRIPOS>BOND
     1     4     5    1
     2     4     2    1
     3     3     2    2
     4     2     1    1
     5     1     6    1
     6     6     7    1
     7     7     9    2
     8     7     8    1
     9     9    11    1
    10     8    10    2
    11    11    12    2
    12    10    12    1
