@<TRIPOS>MOLECULE
/home/cewinharhar/GITHUB/reincatalyze/data/processed/docking_pred/2023-Apr-25-2248_maxeplen10_maxtrainstep1000_exh16_gamma099_lrac3e-4_lrcr1e-3/e3e0f9713a2c6d1770d60d03407d62bfa70f046f_ligand_2.pdbqt
 12 12 0 0 0
SMALL
GASTEIGER

@<TRIPOS>ATOM
      1  C          8.3050   -1.7430    1.1710 C.3     1  UNL1        0.1270
      2  C          8.6940   -2.9810    0.4720 C.2     1  UNL1        0.3030
      3  O          9.4440   -3.8060    1.0610 O.2     1  UNL1       -0.2520
      4  O          8.2560   -3.2750   -0.8270 O.3     1  UNL1       -0.4810
      5  H          7.3140   -3.0180   -1.0900 H       1  UNL1        0.2960
      6  C          6.8080   -1.6650    1.4120 C.3     1  UNL1        0.0470
      7  C          6.2480   -0.3960    0.8780 C.2     1  UNL1       -0.0470
      8  C          6.4940   -0.0090   -0.4310 C.2     1  UNL1        0.0040
      9  C          5.4740    0.4590    1.6410 C.2     1  UNL1        0.0040
     10  C          5.9980    1.1650   -0.9510 C.2     1  UNL1        0.0000
     11  C          4.9780    1.6350    1.1190 C.2     1  UNL1        0.0000
     12  C          5.2280    2.0120   -0.1810 C.2     1  UNL1        0.0000
@<TRIPOS>BOND
     1     5     4    1
     2    10     8    1
     3    10    12    2
     4     4     2    1
     5     8     7    2
     6    12    11    1
     7     2     3    2
     8     2     1    1
     9     7     6    1
    10     7     9    1
    11    11     9    2
    12     1     6    1
