MODEL 1
REMARK VINA RESULT:      -7.3      0.000      0.000
REMARK SMILES O=C(O)CCc1ccccc1
REMARK SMILES IDX 4 1 2 2 1 3 3 4 5 6 6 7 7 8 11 9 8 10 10 11 9 12
REMARK H PARENT 3 5
REMARK Flexibility Score: inf
ROOT
ATOM      1  C   UNL     1       8.416  -0.601  -2.206  1.00  0.00     0.127 C 
ENDROOT
BRANCH   1   2
ATOM      2  C   UNL     1       8.459  -1.889  -2.921  1.00  0.00     0.303 C 
ATOM      3  O   UNL     1       9.571  -2.457  -3.092  1.00  0.00    -0.252 OA
BRANCH   2   4
ATOM      4  O   UNL     1       7.303  -2.506  -3.419  1.00  0.00    -0.481 OA
ATOM      5  H   UNL     1       6.639  -2.893  -2.761  1.00  0.00     0.296 HD
ENDBRANCH   2   4
ENDBRANCH   1   2
BRANCH   1   6
ATOM      6  C   UNL     1       7.021  -0.001  -2.188  1.00  0.00     0.047 C 
BRANCH   6   7
ATOM      7  C   UNL     1       6.491   0.074  -0.801  1.00  0.00    -0.047 A 
ATOM      8  C   UNL     1       5.857   1.221  -0.347  1.00  0.00     0.004 A 
ATOM      9  C   UNL     1       6.605  -0.969   0.100  1.00  0.00     0.004 A 
ATOM     10  C   UNL     1       5.365   1.325   0.934  1.00  0.00     0.000 A 
ATOM     11  C   UNL     1       6.111  -0.863   1.383  1.00  0.00     0.000 A 
ATOM     12  C   UNL     1       5.485   0.279   1.827  1.00  0.00     0.000 A 
ENDBRANCH   6   7
ENDBRANCH   1   6
TORSDOF 4
ENDMDL
MODEL 2
REMARK VINA RESULT:      -7.3      0.106      1.724
REMARK SMILES O=C(O)CCc1ccccc1
REMARK SMILES IDX 4 1 2 2 1 3 3 4 5 6 6 7 7 8 11 9 8 10 10 11 9 12
REMARK H PARENT 3 5
REMARK Flexibility Score: inf
ROOT
ATOM      1  C   UNL     1       8.379  -0.640  -2.138  1.00  0.00     0.127 C 
ENDROOT
BRANCH   1   2
ATOM      2  C   UNL     1       8.385  -1.900  -2.902  1.00  0.00     0.303 C 
ATOM      3  O   UNL     1       7.286  -2.411  -3.250  1.00  0.00    -0.252 OA
BRANCH   2   4
ATOM      4  O   UNL     1       9.574  -2.552  -3.259  1.00  0.00    -0.481 OA
ATOM      5  H   UNL     1       9.606  -3.561  -3.210  1.00  0.00     0.296 HD
ENDBRANCH   2   4
ENDBRANCH   1   2
BRANCH   1   6
ATOM      6  C   UNL     1       7.013   0.022  -2.134  1.00  0.00     0.047 C 
BRANCH   6   7
ATOM      7  C   UNL     1       6.469   0.113  -0.754  1.00  0.00    -0.047 A 
ATOM      8  C   UNL     1       6.604  -0.947   0.131  1.00  0.00     0.004 A 
ATOM      9  C   UNL     1       5.804   1.231  -0.284  1.00  0.00     0.004 A 
ATOM     10  C   UNL     1       6.103  -0.898   1.412  1.00  0.00     0.000 A 
ATOM     11  C   UNL     1       5.303   1.279   0.999  1.00  0.00     0.000 A 
ATOM     12  C   UNL     1       5.439   0.222   1.871  1.00  0.00     0.000 A 
ENDBRANCH   6   7
ENDBRANCH   1   6
TORSDOF 4
ENDMDL
MODEL 3
REMARK VINA RESULT:      -6.8      3.395      5.089
REMARK SMILES O=C(O)CCc1ccccc1
REMARK SMILES IDX 4 1 2 2 1 3 3 4 5 6 6 7 7 8 11 9 8 10 10 11 9 12
REMARK H PARENT 3 5
REMARK Flexibility Score: inf
ROOT
ATOM      1  C   UNL     1       5.009   1.766   0.718  1.00  0.00     0.127 C 
ENDROOT
BRANCH   1   2
ATOM      2  C   UNL     1       4.475   1.105   1.922  1.00  0.00     0.303 C 
ATOM      3  O   UNL     1       5.154   0.197   2.474  1.00  0.00    -0.252 OA
BRANCH   2   4
ATOM      4  O   UNL     1       3.235   1.452   2.478  1.00  0.00    -0.481 OA
ATOM      5  H   UNL     1       2.470   1.670   1.854  1.00  0.00     0.296 HD
ENDBRANCH   2   4
ENDBRANCH   1   2
BRANCH   1   6
ATOM      6  C   UNL     1       6.521   1.898   0.759  1.00  0.00     0.047 C 
BRANCH   6   7
ATOM      7  C   UNL     1       7.154   1.110  -0.331  1.00  0.00    -0.047 A 
ATOM      8  C   UNL     1       6.410   0.205  -1.074  1.00  0.00     0.004 A 
ATOM      9  C   UNL     1       8.494   1.222  -0.654  1.00  0.00     0.004 A 
ATOM     10  C   UNL     1       6.970  -0.547  -2.082  1.00  0.00     0.000 A 
ATOM     11  C   UNL     1       9.053   0.468  -1.663  1.00  0.00     0.000 A 
ATOM     12  C   UNL     1       8.308  -0.428  -2.396  1.00  0.00     0.000 A 
ENDBRANCH   6   7
ENDBRANCH   1   6
TORSDOF 4
ENDMDL
MODEL 4
REMARK VINA RESULT:      -6.6      1.928      2.340
REMARK SMILES O=C(O)CCc1ccccc1
REMARK SMILES IDX 4 1 2 2 1 3 3 4 5 6 6 7 7 8 11 9 8 10 10 11 9 12
REMARK H PARENT 3 5
REMARK Flexibility Score: inf
ROOT
ATOM      1  C   UNL     1       8.235   0.088  -2.202  1.00  0.00     0.127 C 
ENDROOT
BRANCH   1   2
ATOM      2  C   UNL     1       9.334   0.339  -1.253  1.00  0.00     0.303 C 
ATOM      3  O   UNL     1       9.453  -0.407  -0.243  1.00  0.00    -0.252 OA
BRANCH   2   4
ATOM      4  O   UNL     1      10.257   1.379  -1.435  1.00  0.00    -0.481 OA
ATOM      5  H   UNL     1      11.198   1.146  -1.720  1.00  0.00     0.296 HD
ENDBRANCH   2   4
ENDBRANCH   1   2
BRANCH   1   6
ATOM      6  C   UNL     1       7.089  -0.677  -1.564  1.00  0.00     0.047 C 
BRANCH   6   7
ATOM      7  C   UNL     1       6.330   0.187  -0.623  1.00  0.00    -0.047 A 
ATOM      8  C   UNL     1       5.826   1.413  -1.037  1.00  0.00     0.004 A 
ATOM      9  C   UNL     1       6.094  -0.165   0.693  1.00  0.00     0.004 A 
ATOM     10  C   UNL     1       5.129   2.240  -0.188  1.00  0.00     0.000 A 
ATOM     11  C   UNL     1       5.395   0.665   1.543  1.00  0.00     0.000 A 
ATOM     12  C   UNL     1       4.900   1.879   1.125  1.00  0.00     0.000 A 
ENDBRANCH   6   7
ENDBRANCH   1   6
TORSDOF 4
ENDMDL
MODEL 5
REMARK VINA RESULT:      -6.6      1.985      2.984
REMARK SMILES O=C(O)CCc1ccccc1
REMARK SMILES IDX 4 1 2 2 1 3 3 4 5 6 6 7 7 8 11 9 8 10 10 11 9 12
REMARK H PARENT 3 5
REMARK Flexibility Score: inf
ROOT
ATOM      1  C   UNL     1       8.305  -1.743   1.171  1.00  0.00     0.127 C 
ENDROOT
BRANCH   1   2
ATOM      2  C   UNL     1       8.694  -2.981   0.472  1.00  0.00     0.303 C 
ATOM      3  O   UNL     1       9.444  -3.806   1.061  1.00  0.00    -0.252 OA
BRANCH   2   4
ATOM      4  O   UNL     1       8.256  -3.275  -0.827  1.00  0.00    -0.481 OA
ATOM      5  H   UNL     1       7.314  -3.018  -1.090  1.00  0.00     0.296 HD
ENDBRANCH   2   4
ENDBRANCH   1   2
BRANCH   1   6
ATOM      6  C   UNL     1       6.808  -1.665   1.412  1.00  0.00     0.047 C 
BRANCH   6   7
ATOM      7  C   UNL     1       6.248  -0.396   0.878  1.00  0.00    -0.047 A 
ATOM      8  C   UNL     1       6.494  -0.009  -0.431  1.00  0.00     0.004 A 
ATOM      9  C   UNL     1       5.474   0.459   1.641  1.00  0.00     0.004 A 
ATOM     10  C   UNL     1       5.998   1.165  -0.951  1.00  0.00     0.000 A 
ATOM     11  C   UNL     1       4.978   1.635   1.119  1.00  0.00     0.000 A 
ATOM     12  C   UNL     1       5.228   2.012  -0.181  1.00  0.00     0.000 A 
ENDBRANCH   6   7
ENDBRANCH   1   6
TORSDOF 4
ENDMDL
