@<TRIPOS>MOLECULE
/home/cewinharhar/GITHUB/reincatalyze/data/processed/docking_pred/2023-Apr-25-2248_maxeplen10_maxtrainstep1000_exh16_gamma099_lrac3e-4_lrcr1e-3/e3e22a08cc3fa656d2264310e8071e645bf38a06_ligand_2.pdbqt
 12 12 0 0 0
SMALL
GASTEIGER

@<TRIPOS>ATOM
      1  C          8.3800   -0.6460   -2.1340 C.3     1  UNL1        0.1270
      2  C          8.3880   -1.9060   -2.8990 C.2     1  UNL1        0.3030
      3  O          7.2890   -2.4150   -3.2510 O.2     1  UNL1       -0.2520
      4  O          9.5770   -2.5590   -3.2510 O.3     1  UNL1       -0.4810
      5  H          9.5890   -3.5700   -3.2620 H       1  UNL1        0.2960
      6  C          7.0100    0.0080   -2.1200 C.3     1  UNL1        0.0470
      7  C          6.4660    0.0750   -0.7390 C.2     1  UNL1       -0.0470
      8  C          5.8000    1.2080   -0.2940 C.2     1  UNL1        0.0040
      9  C          6.5960   -0.9610    0.1680 C.2     1  UNL1        0.0040
     10  C          5.2930    1.3050    0.9820 C.2     1  UNL1        0.0000
     11  C          6.0880   -0.8630    1.4450 C.2     1  UNL1        0.0000
     12  C          5.4300    0.2650    1.8790 C.2     1  UNL1        0.0000
@<TRIPOS>BOND
     1     5     4    1
     2     3     2    2
     3     4     2    1
     4     2     1    1
     5     1     6    1
     6     6     7    1
     7     7     8    2
     8     7     9    1
     9     8    10    1
    10     9    11    2
    11    10    12    2
    12    11    12    1
