@<TRIPOS>MOLECULE
/home/cewinharhar/GITHUB/reincatalyze/data/processed/docking_pred/2023-Apr-25-2248_maxeplen10_maxtrainstep1000_exh16_gamma099_lrac3e-4_lrcr1e-3/e3e22a08cc3fa656d2264310e8071e645bf38a06_ligand_2.pdbqt
 12 12 0 0 0
SMALL
GASTEIGER

@<TRIPOS>ATOM
      1  C          8.3050   -0.9870   -1.8000 C.3     1  UNL1        0.1270
      2  C          8.3520   -2.0350   -2.8350 C.2     1  UNL1        0.3030
      3  O          7.2730   -2.4450   -3.3410 O.2     1  UNL1       -0.2520
      4  O          9.5600   -2.5920   -3.2800 O.3     1  UNL1       -0.4810
      5  H          9.9110   -3.4190   -2.8160 H       1  UNL1        0.2960
      6  C          7.5200   -1.4240   -0.5760 C.3     1  UNL1        0.0470
      7  C          6.6460   -0.3280   -0.0840 C.2     1  UNL1       -0.0470
      8  C          6.1210   -0.3630    1.2000 C.2     1  UNL1        0.0040
      9  C          6.3020    0.7620   -0.8620 C.2     1  UNL1        0.0040
     10  C          5.3010    0.6310    1.6820 C.2     1  UNL1        0.0000
     11  C          5.4810    1.7580   -0.3780 C.2     1  UNL1        0.0000
     12  C          4.9630    1.7150    0.8960 C.2     1  UNL1        0.0000
@<TRIPOS>BOND
     1     3     2    2
     2     4     2    1
     3     4     5    1
     4     2     1    1
     5     1     6    1
     6     9    11    1
     7     9     7    2
     8     6     7    1
     9    11    12    2
    10     7     8    1
    11    12    10    1
    12     8    10    2
