@<TRIPOS>MOLECULE
/home/cewinharhar/GITHUB/reincatalyze/data/processed/docking_pred/2023-Apr-25-2248_maxeplen10_maxtrainstep1000_exh16_gamma099_lrac3e-4_lrcr1e-3/e3e22a08cc3fa656d2264310e8071e645bf38a06_ligand_2.pdbqt
 12 12 0 0 0
SMALL
GASTEIGER

@<TRIPOS>ATOM
      1  C          8.4190   -0.6750   -2.0940 C.3     1  UNL1        0.1270
      2  C          8.4470   -1.9170   -2.8880 C.2     1  UNL1        0.3030
      3  O          9.5520   -2.4910   -3.0870 O.2     1  UNL1       -0.2520
      4  O          7.2850   -2.4840   -3.4310 O.3     1  UNL1       -0.4810
      5  H          7.3760   -3.2990   -4.0230 H       1  UNL1        0.2960
      6  C          7.0560   -0.0070   -2.1230 C.3     1  UNL1        0.0470
      7  C          6.4900    0.1090   -0.7540 C.2     1  UNL1       -0.0470
      8  C          6.6010   -0.9390    0.1490 C.2     1  UNL1        0.0040
      9  C          5.8260    1.2380   -0.3110 C.2     1  UNL1        0.0040
     10  C          6.0790   -0.8670    1.4200 C.2     1  UNL1        0.0000
     11  C          5.3040    1.3090    0.9620 C.2     1  UNL1        0.0000
     12  C          5.4160    0.2640    1.8510 C.2     1  UNL1        0.0000
@<TRIPOS>BOND
     1     5     4    1
     2     4     2    1
     3     3     2    2
     4     2     1    1
     5     6     1    1
     6     6     7    1
     7     7     9    2
     8     7     8    1
     9     9    11    1
    10     8    10    2
    11    11    12    2
    12    10    12    1
