@<TRIPOS>MOLECULE
/home/cewinharhar/GITHUB/reincatalyze/data/processed/docking_pred/2023-Apr-25-2248_maxeplen10_maxtrainstep1000_exh16_gamma099_lrac3e-4_lrcr1e-3/e3e22a08cc3fa656d2264310e8071e645bf38a06_ligand_2.pdbqt
 12 12 0 0 0
SMALL
GASTEIGER

@<TRIPOS>ATOM
      1  C          8.2840    0.3790   -1.9660 C.3     1  UNL1        0.1270
      2  C          9.4680    0.4160   -1.0880 C.2     1  UNL1        0.3030
      3  O          9.5260   -0.3710   -0.1050 O.2     1  UNL1       -0.2520
      4  O         10.5350    1.2980   -1.3100 O.3     1  UNL1       -0.4810
      5  H         10.6770    1.6600   -2.2430 H       1  UNL1        0.2960
      6  C          7.2050   -0.5480   -1.4340 C.3     1  UNL1        0.0470
      7  C          6.3910    0.1270   -0.3900 C.2     1  UNL1       -0.0470
      8  C          6.1860   -0.4730    0.8440 C.2     1  UNL1        0.0040
      9  C          5.7970    1.3600   -0.5840 C.2     1  UNL1        0.0040
     10  C          5.4290    0.1210    1.8280 C.2     1  UNL1        0.0000
     11  C          5.0390    1.9540    0.4020 C.2     1  UNL1        0.0000
     12  C          4.8380    1.3510    1.6230 C.2     1  UNL1        0.0000
@<TRIPOS>BOND
     1     5     4    1
     2     1     6    1
     3     1     2    1
     4     6     7    1
     5     4     2    1
     6     2     3    2
     7     9     7    2
     8     9    11    1
     9     7     8    1
    10    11    12    2
    11     8    10    2
    12    12    10    1
