@<TRIPOS>MOLECULE
/home/cewinharhar/GITHUB/reincatalyze/data/processed/docking_pred/2023-Apr-25-2248_maxeplen10_maxtrainstep1000_exh16_gamma099_lrac3e-4_lrcr1e-3/e3e22a08cc3fa656d2264310e8071e645bf38a06_ligand_2.pdbqt
 12 12 0 0 0
SMALL
GASTEIGER

@<TRIPOS>ATOM
      1  C          4.9900    1.7780    0.7230 C.3     1  UNL1        0.1270
      2  C          4.4650    1.1140    1.9290 C.2     1  UNL1        0.3030
      3  O          5.1540    0.2130    2.4800 O.2     1  UNL1       -0.2520
      4  O          3.2240    1.4510    2.4880 O.3     1  UNL1       -0.4810
      5  H          2.5470    0.7160    2.6410 H       1  UNL1        0.2960
      6  C          6.5030    1.9000    0.7470 C.3     1  UNL1        0.0470
      7  C          7.1200    1.0860   -0.3320 C.2     1  UNL1       -0.0470
      8  C          8.4660    1.2230   -0.6400 C.2     1  UNL1        0.0040
      9  C          6.4040    0.1710   -1.0820 C.2     1  UNL1        0.0040
     10  C          9.0650    0.4910   -1.6400 C.2     1  UNL1        0.0000
     11  C          7.0050   -0.5610   -2.0830 C.2     1  UNL1        0.0000
     12  C          8.3410   -0.4180   -2.3840 C.2     1  UNL1        0.0000
@<TRIPOS>BOND
     1    12    11    2
     2    12    10    1
     3    11     9    1
     4    10     8    2
     5     9     7    2
     6     8     7    1
     7     7     6    1
     8     1     6    1
     9     1     2    1
    10     2     3    2
    11     2     4    1
    12     4     5    1
