MODEL 1
REMARK VINA RESULT:      -7.3      0.000      0.000
REMARK SMILES O=C(O)CCc1ccccc1
REMARK SMILES IDX 4 1 2 2 1 3 3 4 5 6 6 7 7 8 11 9 8 10 10 11 9 12
REMARK H PARENT 3 5
REMARK Flexibility Score: inf
ROOT
ATOM      1  C   UNL     1       8.419  -0.675  -2.094  1.00  0.00     0.127 C 
ENDROOT
BRANCH   1   2
ATOM      2  C   UNL     1       8.447  -1.917  -2.888  1.00  0.00     0.303 C 
ATOM      3  O   UNL     1       9.552  -2.491  -3.087  1.00  0.00    -0.252 OA
BRANCH   2   4
ATOM      4  O   UNL     1       7.285  -2.484  -3.431  1.00  0.00    -0.481 OA
ATOM      5  H   UNL     1       7.376  -3.299  -4.023  1.00  0.00     0.296 HD
ENDBRANCH   2   4
ENDBRANCH   1   2
BRANCH   1   6
ATOM      6  C   UNL     1       7.056  -0.007  -2.123  1.00  0.00     0.047 C 
BRANCH   6   7
ATOM      7  C   UNL     1       6.490   0.109  -0.754  1.00  0.00    -0.047 A 
ATOM      8  C   UNL     1       6.601  -0.939   0.149  1.00  0.00     0.004 A 
ATOM      9  C   UNL     1       5.826   1.238  -0.311  1.00  0.00     0.004 A 
ATOM     10  C   UNL     1       6.079  -0.867   1.420  1.00  0.00     0.000 A 
ATOM     11  C   UNL     1       5.304   1.309   0.962  1.00  0.00     0.000 A 
ATOM     12  C   UNL     1       5.416   0.264   1.851  1.00  0.00     0.000 A 
ENDBRANCH   6   7
ENDBRANCH   1   6
TORSDOF 4
ENDMDL
MODEL 2
REMARK VINA RESULT:      -7.3      0.089      1.723
REMARK SMILES O=C(O)CCc1ccccc1
REMARK SMILES IDX 4 1 2 2 1 3 3 4 5 6 6 7 7 8 11 9 8 10 10 11 9 12
REMARK H PARENT 3 5
REMARK Flexibility Score: inf
ROOT
ATOM      1  C   UNL     1       8.380  -0.646  -2.134  1.00  0.00     0.127 C 
ENDROOT
BRANCH   1   2
ATOM      2  C   UNL     1       8.388  -1.906  -2.899  1.00  0.00     0.303 C 
ATOM      3  O   UNL     1       7.289  -2.415  -3.251  1.00  0.00    -0.252 OA
BRANCH   2   4
ATOM      4  O   UNL     1       9.577  -2.559  -3.251  1.00  0.00    -0.481 OA
ATOM      5  H   UNL     1       9.589  -3.570  -3.262  1.00  0.00     0.296 HD
ENDBRANCH   2   4
ENDBRANCH   1   2
BRANCH   1   6
ATOM      6  C   UNL     1       7.010   0.008  -2.120  1.00  0.00     0.047 C 
BRANCH   6   7
ATOM      7  C   UNL     1       6.466   0.075  -0.739  1.00  0.00    -0.047 A 
ATOM      8  C   UNL     1       5.800   1.208  -0.294  1.00  0.00     0.004 A 
ATOM      9  C   UNL     1       6.596  -0.961   0.168  1.00  0.00     0.004 A 
ATOM     10  C   UNL     1       5.293   1.305   0.982  1.00  0.00     0.000 A 
ATOM     11  C   UNL     1       6.088  -0.863   1.445  1.00  0.00     0.000 A 
ATOM     12  C   UNL     1       5.430   0.265   1.879  1.00  0.00     0.000 A 
ENDBRANCH   6   7
ENDBRANCH   1   6
TORSDOF 4
ENDMDL
MODEL 3
REMARK VINA RESULT:      -7.1      0.672      1.554
REMARK SMILES O=C(O)CCc1ccccc1
REMARK SMILES IDX 4 1 2 2 1 3 3 4 5 6 6 7 7 8 11 9 8 10 10 11 9 12
REMARK H PARENT 3 5
REMARK Flexibility Score: inf
ROOT
ATOM      1  C   UNL     1       8.305  -0.987  -1.800  1.00  0.00     0.127 C 
ENDROOT
BRANCH   1   2
ATOM      2  C   UNL     1       8.352  -2.035  -2.835  1.00  0.00     0.303 C 
ATOM      3  O   UNL     1       7.273  -2.445  -3.341  1.00  0.00    -0.252 OA
BRANCH   2   4
ATOM      4  O   UNL     1       9.560  -2.592  -3.280  1.00  0.00    -0.481 OA
ATOM      5  H   UNL     1       9.911  -3.419  -2.816  1.00  0.00     0.296 HD
ENDBRANCH   2   4
ENDBRANCH   1   2
BRANCH   1   6
ATOM      6  C   UNL     1       7.520  -1.424  -0.576  1.00  0.00     0.047 C 
BRANCH   6   7
ATOM      7  C   UNL     1       6.646  -0.328  -0.084  1.00  0.00    -0.047 A 
ATOM      8  C   UNL     1       6.121  -0.363   1.200  1.00  0.00     0.004 A 
ATOM      9  C   UNL     1       6.302   0.762  -0.862  1.00  0.00     0.004 A 
ATOM     10  C   UNL     1       5.301   0.631   1.682  1.00  0.00     0.000 A 
ATOM     11  C   UNL     1       5.481   1.758  -0.378  1.00  0.00     0.000 A 
ATOM     12  C   UNL     1       4.963   1.715   0.896  1.00  0.00     0.000 A 
ENDBRANCH   6   7
ENDBRANCH   1   6
TORSDOF 4
ENDMDL
MODEL 4
REMARK VINA RESULT:      -6.8      3.396      5.098
REMARK SMILES O=C(O)CCc1ccccc1
REMARK SMILES IDX 4 1 2 2 1 3 3 4 5 6 6 7 7 8 11 9 8 10 10 11 9 12
REMARK H PARENT 3 5
REMARK Flexibility Score: inf
ROOT
ATOM      1  C   UNL     1       4.990   1.778   0.723  1.00  0.00     0.127 C 
ENDROOT
BRANCH   1   2
ATOM      2  C   UNL     1       4.465   1.114   1.929  1.00  0.00     0.303 C 
ATOM      3  O   UNL     1       5.154   0.213   2.480  1.00  0.00    -0.252 OA
BRANCH   2   4
ATOM      4  O   UNL     1       3.224   1.451   2.488  1.00  0.00    -0.481 OA
ATOM      5  H   UNL     1       2.547   0.716   2.641  1.00  0.00     0.296 HD
ENDBRANCH   2   4
ENDBRANCH   1   2
BRANCH   1   6
ATOM      6  C   UNL     1       6.503   1.900   0.747  1.00  0.00     0.047 C 
BRANCH   6   7
ATOM      7  C   UNL     1       7.120   1.086  -0.332  1.00  0.00    -0.047 A 
ATOM      8  C   UNL     1       8.466   1.223  -0.640  1.00  0.00     0.004 A 
ATOM      9  C   UNL     1       6.404   0.171  -1.082  1.00  0.00     0.004 A 
ATOM     10  C   UNL     1       9.065   0.491  -1.640  1.00  0.00     0.000 A 
ATOM     11  C   UNL     1       7.005  -0.561  -2.083  1.00  0.00     0.000 A 
ATOM     12  C   UNL     1       8.341  -0.418  -2.384  1.00  0.00     0.000 A 
ENDBRANCH   6   7
ENDBRANCH   1   6
TORSDOF 4
ENDMDL
MODEL 5
REMARK VINA RESULT:      -6.6      1.993      2.325
REMARK SMILES O=C(O)CCc1ccccc1
REMARK SMILES IDX 4 1 2 2 1 3 3 4 5 6 6 7 7 8 11 9 8 10 10 11 9 12
REMARK H PARENT 3 5
REMARK Flexibility Score: inf
ROOT
ATOM      1  C   UNL     1       8.284   0.379  -1.966  1.00  0.00     0.127 C 
ENDROOT
BRANCH   1   2
ATOM      2  C   UNL     1       9.468   0.416  -1.088  1.00  0.00     0.303 C 
ATOM      3  O   UNL     1       9.526  -0.371  -0.105  1.00  0.00    -0.252 OA
BRANCH   2   4
ATOM      4  O   UNL     1      10.535   1.298  -1.310  1.00  0.00    -0.481 OA
ATOM      5  H   UNL     1      10.677   1.660  -2.243  1.00  0.00     0.296 HD
ENDBRANCH   2   4
ENDBRANCH   1   2
BRANCH   1   6
ATOM      6  C   UNL     1       7.205  -0.548  -1.434  1.00  0.00     0.047 C 
BRANCH   6   7
ATOM      7  C   UNL     1       6.391   0.127  -0.390  1.00  0.00    -0.047 A 
ATOM      8  C   UNL     1       6.186  -0.473   0.844  1.00  0.00     0.004 A 
ATOM      9  C   UNL     1       5.797   1.360  -0.584  1.00  0.00     0.004 A 
ATOM     10  C   UNL     1       5.429   0.121   1.828  1.00  0.00     0.000 A 
ATOM     11  C   UNL     1       5.039   1.954   0.402  1.00  0.00     0.000 A 
ATOM     12  C   UNL     1       4.838   1.351   1.623  1.00  0.00     0.000 A 
ENDBRANCH   6   7
ENDBRANCH   1   6
TORSDOF 4
ENDMDL
