@<TRIPOS>MOLECULE
/home/cewinharhar/GITHUB/reincatalyze/data/processed/docking_pred/2023-Apr-25-2248_maxeplen10_maxtrainstep1000_exh16_gamma099_lrac3e-4_lrcr1e-3/e3fbdfe9b196bdc40f83d7817e536621cd4b8c1b_ligand_2.pdbqt
 12 12 0 0 0
SMALL
GASTEIGER

@<TRIPOS>ATOM
      1  C          8.5300    0.7160   -1.6040 C.3     1  UNL1        0.1270
      2  C          9.6820    0.2820   -0.7940 C.2     1  UNL1        0.3030
      3  O          9.4930   -0.5270    0.1550 O.2     1  UNL1       -0.2520
      4  O         10.9850    0.7370   -1.0430 O.3     1  UNL1       -0.4810
      5  H         11.1230    1.7170   -1.2530 H       1  UNL1        0.2960
      6  C          7.3300   -0.1970   -1.4300 C.3     1  UNL1        0.0470
      7  C          6.4280    0.3060   -0.3610 C.2     1  UNL1       -0.0470
      8  C          5.7840    1.5280   -0.4950 C.2     1  UNL1        0.0040
      9  C          6.1910   -0.3920    0.8090 C.2     1  UNL1        0.0040
     10  C          4.9520    2.0270    0.4810 C.2     1  UNL1        0.0000
     11  C          5.3570    0.1090    1.7860 C.2     1  UNL1        0.0000
     12  C          4.7230    1.3220    1.6460 C.2     1  UNL1        0.0000
@<TRIPOS>BOND
     1     1     6    1
     2     1     2    1
     3     6     7    1
     4     5     4    1
     5     4     2    1
     6     2     3    2
     7     8     7    2
     8     8    10    1
     9     7     9    1
    10    10    12    2
    11     9    11    2
    12    12    11    1
