@<TRIPOS>MOLECULE
/home/cewinharhar/GITHUB/reincatalyze/data/processed/docking_pred/2023-Apr-25-2248_maxeplen10_maxtrainstep1000_exh16_gamma099_lrac3e-4_lrcr1e-3/e3fbdfe9b196bdc40f83d7817e536621cd4b8c1b_ligand_2.pdbqt
 12 12 0 0 0
SMALL
GASTEIGER

@<TRIPOS>ATOM
      1  C          5.0240    1.7820    0.7370 C.3     1  UNL1        0.1270
      2  C          4.4820    1.1070    1.9300 C.2     1  UNL1        0.3030
      3  O          5.1580    0.1940    2.4770 O.2     1  UNL1       -0.2520
      4  O          3.2380    1.4470    2.4810 O.3     1  UNL1       -0.4810
      5  H          3.1270    1.4090    3.4850 H       1  UNL1        0.2960
      6  C          6.5370    1.8910    0.7780 C.3     1  UNL1        0.0470
      7  C          7.1580    1.1080   -0.3230 C.2     1  UNL1       -0.0470
      8  C          6.4050    0.2080   -1.0620 C.2     1  UNL1        0.0040
      9  C          8.4940    1.2210   -0.6600 C.2     1  UNL1        0.0040
     10  C          6.9530   -0.5400   -2.0800 C.2     1  UNL1        0.0000
     11  C          9.0410    0.4720   -1.6790 C.2     1  UNL1        0.0000
     12  C          8.2880   -0.4210   -2.4080 C.2     1  UNL1        0.0000
@<TRIPOS>BOND
     1    12    10    2
     2    12    11    1
     3    10     8    1
     4    11     9    2
     5     8     7    2
     6     9     7    1
     7     7     6    1
     8     1     6    1
     9     1     2    1
    10     2     3    2
    11     2     4    1
    12     4     5    1
