@<TRIPOS>MOLECULE
/home/cewinharhar/GITHUB/reincatalyze/data/processed/docking_pred/2023-Apr-25-2248_maxeplen10_maxtrainstep1000_exh16_gamma099_lrac3e-4_lrcr1e-3/e3fbdfe9b196bdc40f83d7817e536621cd4b8c1b_ligand_2.pdbqt
 12 12 0 0 0
SMALL
GASTEIGER

@<TRIPOS>ATOM
      1  C          7.0070   -1.2690   -2.1570 C.3     1  UNL1        0.1270
      2  C          8.2720   -1.9630   -2.4590 C.2     1  UNL1        0.3030
      3  O          9.3220   -1.2830   -2.6140 O.2     1  UNL1       -0.2520
      4  O          8.3480   -3.3580   -2.5780 O.3     1  UNL1       -0.4810
      5  H          9.1460   -3.8350   -2.1780 H       1  UNL1        0.2960
      6  C          7.2340    0.1600   -1.6960 C.3     1  UNL1        0.0470
      7  C          6.4290    0.4620   -0.4830 C.2     1  UNL1       -0.0470
      8  C          6.3660   -0.4430    0.5670 C.2     1  UNL1        0.0040
      9  C          5.7060    1.6310   -0.3370 C.2     1  UNL1        0.0040
     10  C          5.6220   -0.1970    1.6980 C.2     1  UNL1        0.0000
     11  C          4.9610    1.8760    0.7970 C.2     1  UNL1        0.0000
     12  C          4.9020    0.9730    1.8340 C.2     1  UNL1        0.0000
@<TRIPOS>BOND
     1     3     2    2
     2     4     2    1
     3     4     5    1
     4     2     1    1
     5     1     6    1
     6     6     7    1
     7     7     9    2
     8     7     8    1
     9     9    11    1
    10     8    10    2
    11    11    12    2
    12    10    12    1
