MODEL 1
REMARK VINA RESULT:      -7.2      0.000      0.000
REMARK SMILES O=C(O)CCc1ccccc1
REMARK SMILES IDX 4 1 2 2 1 3 3 4 5 6 6 7 7 8 11 9 8 10 10 11 9 12
REMARK H PARENT 3 5
REMARK Flexibility Score: inf
ROOT
ATOM      1  C   UNL     1       8.374  -0.616  -2.170  1.00  0.00     0.127 C 
ENDROOT
BRANCH   1   2
ATOM      2  C   UNL     1       8.385  -1.892  -2.907  1.00  0.00     0.303 C 
ATOM      3  O   UNL     1       7.288  -2.410  -3.251  1.00  0.00    -0.252 OA
BRANCH   2   4
ATOM      4  O   UNL     1       9.577  -2.552  -3.241  1.00  0.00    -0.481 OA
ATOM      5  H   UNL     1      10.456  -2.120  -2.991  1.00  0.00     0.296 HD
ENDBRANCH   2   4
ENDBRANCH   1   2
BRANCH   1   6
ATOM      6  C   UNL     1       6.998   0.024  -2.151  1.00  0.00     0.047 C 
BRANCH   6   7
ATOM      7  C   UNL     1       6.467   0.105  -0.765  1.00  0.00    -0.047 A 
ATOM      8  C   UNL     1       6.600  -0.966   0.107  1.00  0.00     0.004 A 
ATOM      9  C   UNL     1       5.816   1.223  -0.278  1.00  0.00     0.004 A 
ATOM     10  C   UNL     1       6.110  -0.925   1.393  1.00  0.00     0.000 A 
ATOM     11  C   UNL     1       5.326   1.262   1.010  1.00  0.00     0.000 A 
ATOM     12  C   UNL     1       5.460   0.195   1.869  1.00  0.00     0.000 A 
ENDBRANCH   6   7
ENDBRANCH   1   6
TORSDOF 4
ENDMDL
MODEL 2
REMARK VINA RESULT:      -7.2      0.048      1.421
REMARK SMILES O=C(O)CCc1ccccc1
REMARK SMILES IDX 4 1 2 2 1 3 3 4 5 6 6 7 7 8 11 9 8 10 10 11 9 12
REMARK H PARENT 3 5
REMARK Flexibility Score: inf
ROOT
ATOM      1  C   UNL     1       8.389  -0.592  -2.203  1.00  0.00     0.127 C 
ENDROOT
BRANCH   1   2
ATOM      2  C   UNL     1       8.392  -1.888  -2.903  1.00  0.00     0.303 C 
ATOM      3  O   UNL     1       7.291  -2.409  -3.231  1.00  0.00    -0.252 OA
BRANCH   2   4
ATOM      4  O   UNL     1       9.578  -2.565  -3.221  1.00  0.00    -0.481 OA
ATOM      5  H   UNL     1       9.960  -2.461  -4.151  1.00  0.00     0.296 HD
ENDBRANCH   2   4
ENDBRANCH   1   2
BRANCH   1   6
ATOM      6  C   UNL     1       7.004   0.027  -2.145  1.00  0.00     0.047 C 
BRANCH   6   7
ATOM      7  C   UNL     1       6.491   0.055  -0.751  1.00  0.00    -0.047 A 
ATOM      8  C   UNL     1       5.869   1.189  -0.248  1.00  0.00     0.004 A 
ATOM      9  C   UNL     1       6.609  -1.019   0.112  1.00  0.00     0.004 A 
ATOM     10  C   UNL     1       5.393   1.251   1.041  1.00  0.00     0.000 A 
ATOM     11  C   UNL     1       6.131  -0.956   1.404  1.00  0.00     0.000 A 
ATOM     12  C   UNL     1       5.517   0.174   1.895  1.00  0.00     0.000 A 
ENDBRANCH   6   7
ENDBRANCH   1   6
TORSDOF 4
ENDMDL
MODEL 3
REMARK VINA RESULT:      -6.8      3.326      5.147
REMARK SMILES O=C(O)CCc1ccccc1
REMARK SMILES IDX 4 1 2 2 1 3 3 4 5 6 6 7 7 8 11 9 8 10 10 11 9 12
REMARK H PARENT 3 5
REMARK Flexibility Score: inf
ROOT
ATOM      1  C   UNL     1       5.024   1.782   0.737  1.00  0.00     0.127 C 
ENDROOT
BRANCH   1   2
ATOM      2  C   UNL     1       4.482   1.107   1.930  1.00  0.00     0.303 C 
ATOM      3  O   UNL     1       5.158   0.194   2.477  1.00  0.00    -0.252 OA
BRANCH   2   4
ATOM      4  O   UNL     1       3.238   1.447   2.481  1.00  0.00    -0.481 OA
ATOM      5  H   UNL     1       3.127   1.409   3.485  1.00  0.00     0.296 HD
ENDBRANCH   2   4
ENDBRANCH   1   2
BRANCH   1   6
ATOM      6  C   UNL     1       6.537   1.891   0.778  1.00  0.00     0.047 C 
BRANCH   6   7
ATOM      7  C   UNL     1       7.158   1.108  -0.323  1.00  0.00    -0.047 A 
ATOM      8  C   UNL     1       6.405   0.208  -1.062  1.00  0.00     0.004 A 
ATOM      9  C   UNL     1       8.494   1.221  -0.660  1.00  0.00     0.004 A 
ATOM     10  C   UNL     1       6.953  -0.540  -2.080  1.00  0.00     0.000 A 
ATOM     11  C   UNL     1       9.041   0.472  -1.679  1.00  0.00     0.000 A 
ATOM     12  C   UNL     1       8.288  -0.421  -2.408  1.00  0.00     0.000 A 
ENDBRANCH   6   7
ENDBRANCH   1   6
TORSDOF 4
ENDMDL
MODEL 4
REMARK VINA RESULT:      -6.8      0.930      1.147
REMARK SMILES O=C(O)CCc1ccccc1
REMARK SMILES IDX 4 1 2 2 1 3 3 4 5 6 6 7 7 8 11 9 8 10 10 11 9 12
REMARK H PARENT 3 5
REMARK Flexibility Score: inf
ROOT
ATOM      1  C   UNL     1       7.007  -1.269  -2.157  1.00  0.00     0.127 C 
ENDROOT
BRANCH   1   2
ATOM      2  C   UNL     1       8.272  -1.963  -2.459  1.00  0.00     0.303 C 
ATOM      3  O   UNL     1       9.322  -1.283  -2.614  1.00  0.00    -0.252 OA
BRANCH   2   4
ATOM      4  O   UNL     1       8.348  -3.358  -2.578  1.00  0.00    -0.481 OA
ATOM      5  H   UNL     1       9.146  -3.835  -2.178  1.00  0.00     0.296 HD
ENDBRANCH   2   4
ENDBRANCH   1   2
BRANCH   1   6
ATOM      6  C   UNL     1       7.234   0.160  -1.696  1.00  0.00     0.047 C 
BRANCH   6   7
ATOM      7  C   UNL     1       6.429   0.462  -0.483  1.00  0.00    -0.047 A 
ATOM      8  C   UNL     1       6.366  -0.443   0.567  1.00  0.00     0.004 A 
ATOM      9  C   UNL     1       5.706   1.631  -0.337  1.00  0.00     0.004 A 
ATOM     10  C   UNL     1       5.622  -0.197   1.698  1.00  0.00     0.000 A 
ATOM     11  C   UNL     1       4.961   1.876   0.797  1.00  0.00     0.000 A 
ATOM     12  C   UNL     1       4.902   0.973   1.834  1.00  0.00     0.000 A 
ENDBRANCH   6   7
ENDBRANCH   1   6
TORSDOF 4
ENDMDL
MODEL 5
REMARK VINA RESULT:      -6.5      2.069      2.653
REMARK SMILES O=C(O)CCc1ccccc1
REMARK SMILES IDX 4 1 2 2 1 3 3 4 5 6 6 7 7 8 11 9 8 10 10 11 9 12
REMARK H PARENT 3 5
REMARK Flexibility Score: inf
ROOT
ATOM      1  C   UNL     1       8.530   0.716  -1.604  1.00  0.00     0.127 C 
ENDROOT
BRANCH   1   2
ATOM      2  C   UNL     1       9.682   0.282  -0.794  1.00  0.00     0.303 C 
ATOM      3  O   UNL     1       9.493  -0.527   0.155  1.00  0.00    -0.252 OA
BRANCH   2   4
ATOM      4  O   UNL     1      10.985   0.737  -1.043  1.00  0.00    -0.481 OA
ATOM      5  H   UNL     1      11.123   1.717  -1.253  1.00  0.00     0.296 HD
ENDBRANCH   2   4
ENDBRANCH   1   2
BRANCH   1   6
ATOM      6  C   UNL     1       7.330  -0.197  -1.430  1.00  0.00     0.047 C 
BRANCH   6   7
ATOM      7  C   UNL     1       6.428   0.306  -0.361  1.00  0.00    -0.047 A 
ATOM      8  C   UNL     1       5.784   1.528  -0.495  1.00  0.00     0.004 A 
ATOM      9  C   UNL     1       6.191  -0.392   0.809  1.00  0.00     0.004 A 
ATOM     10  C   UNL     1       4.952   2.027   0.481  1.00  0.00     0.000 A 
ATOM     11  C   UNL     1       5.357   0.109   1.786  1.00  0.00     0.000 A 
ATOM     12  C   UNL     1       4.723   1.322   1.646  1.00  0.00     0.000 A 
ENDBRANCH   6   7
ENDBRANCH   1   6
TORSDOF 4
ENDMDL
