@<TRIPOS>MOLECULE
/home/cewinharhar/GITHUB/reincatalyze/data/processed/docking_pred/2023-Apr-25-2248_maxeplen10_maxtrainstep1000_exh16_gamma099_lrac3e-4_lrcr1e-3/e3fbdfe9b196bdc40f83d7817e536621cd4b8c1b_ligand_2.pdbqt
 12 12 0 0 0
SMALL
GASTEIGER

@<TRIPOS>ATOM
      1  C          8.3740   -0.6160   -2.1700 C.3     1  UNL1        0.1270
      2  C          8.3850   -1.8920   -2.9070 C.2     1  UNL1        0.3030
      3  O          7.2880   -2.4100   -3.2510 O.2     1  UNL1       -0.2520
      4  O          9.5770   -2.5520   -3.2410 O.3     1  UNL1       -0.4810
      5  H         10.4560   -2.1200   -2.9910 H       1  UNL1        0.2960
      6  C          6.9980    0.0240   -2.1510 C.3     1  UNL1        0.0470
      7  C          6.4670    0.1050   -0.7650 C.2     1  UNL1       -0.0470
      8  C          6.6000   -0.9660    0.1070 C.2     1  UNL1        0.0040
      9  C          5.8160    1.2230   -0.2780 C.2     1  UNL1        0.0040
     10  C          6.1100   -0.9250    1.3930 C.2     1  UNL1        0.0000
     11  C          5.3260    1.2620    1.0100 C.2     1  UNL1        0.0000
     12  C          5.4600    0.1950    1.8690 C.2     1  UNL1        0.0000
@<TRIPOS>BOND
     1     3     2    2
     2     4     5    1
     3     4     2    1
     4     2     1    1
     5     1     6    1
     6     6     7    1
     7     7     9    2
     8     7     8    1
     9     9    11    1
    10     8    10    2
    11    11    12    2
    12    10    12    1
