@<TRIPOS>MOLECULE
/home/cewinharhar/GITHUB/reincatalyze/data/processed/docking_pred/2023-Apr-25-2248_maxeplen10_maxtrainstep1000_exh16_gamma099_lrac3e-4_lrcr1e-3/e3fbdfe9b196bdc40f83d7817e536621cd4b8c1b_ligand_2.pdbqt
 12 12 0 0 0
SMALL
GASTEIGER

@<TRIPOS>ATOM
      1  C          8.3890   -0.5920   -2.2030 C.3     1  UNL1        0.1270
      2  C          8.3920   -1.8880   -2.9030 C.2     1  UNL1        0.3030
      3  O          7.2910   -2.4090   -3.2310 O.2     1  UNL1       -0.2520
      4  O          9.5780   -2.5650   -3.2210 O.3     1  UNL1       -0.4810
      5  H          9.9600   -2.4610   -4.1510 H       1  UNL1        0.2960
      6  C          7.0040    0.0270   -2.1450 C.3     1  UNL1        0.0470
      7  C          6.4910    0.0550   -0.7510 C.2     1  UNL1       -0.0470
      8  C          5.8690    1.1890   -0.2480 C.2     1  UNL1        0.0040
      9  C          6.6090   -1.0190    0.1120 C.2     1  UNL1        0.0040
     10  C          5.3930    1.2510    1.0410 C.2     1  UNL1        0.0000
     11  C          6.1310   -0.9560    1.4040 C.2     1  UNL1        0.0000
     12  C          5.5170    0.1740    1.8950 C.2     1  UNL1        0.0000
@<TRIPOS>BOND
     1     5     4    1
     2     3     2    2
     3     4     2    1
     4     2     1    1
     5     1     6    1
     6     6     7    1
     7     7     8    2
     8     7     9    1
     9     8    10    1
    10     9    11    2
    11    10    12    2
    12    11    12    1
