@<TRIPOS>MOLECULE
/home/cewinharhar/GITHUB/reincatalyze/data/processed/docking_pred/2023-Apr-25-2248_maxeplen10_maxtrainstep1000_exh16_gamma099_lrac3e-4_lrcr1e-3/e4036567ae6c7c824a0e93db279f74886267d276_ligand_2.pdbqt
 12 12 0 0 0
SMALL
GASTEIGER

@<TRIPOS>ATOM
      1  C          8.0760   -1.5580    1.1340 C.3     1  UNL1        0.1270
      2  C          8.4210   -2.7430    0.3290 C.2     1  UNL1        0.3030
      3  O          9.0870   -3.6720    0.8620 O.2     1  UNL1       -0.2520
      4  O          8.0320   -2.8760   -1.0120 O.3     1  UNL1       -0.4810
      5  H          7.0770   -3.1390   -1.2140 H       1  UNL1        0.2960
      6  C          6.5800   -1.4360    1.3640 C.3     1  UNL1        0.0470
      7  C          6.0610   -0.1530    0.8230 C.2     1  UNL1       -0.0470
      8  C          6.3280    0.2230   -0.4860 C.2     1  UNL1        0.0040
      9  C          5.3080    0.7280    1.5780 C.2     1  UNL1        0.0040
     10  C          5.8700    1.4090   -1.0130 C.2     1  UNL1        0.0000
     11  C          4.8510    1.9150    1.0480 C.2     1  UNL1        0.0000
     12  C          5.1200    2.2810   -0.2510 C.2     1  UNL1        0.0000
@<TRIPOS>BOND
     1     5     4    1
     2    10     8    1
     3    10    12    2
     4     4     2    1
     5     8     7    2
     6    12    11    1
     7     2     3    2
     8     2     1    1
     9     7     6    1
    10     7     9    1
    11    11     9    2
    12     1     6    1
