@<TRIPOS>MOLECULE
/home/cewinharhar/GITHUB/reincatalyze/data/processed/docking_pred/2023-Apr-25-2248_maxeplen10_maxtrainstep1000_exh16_gamma099_lrac3e-4_lrcr1e-3/e4036567ae6c7c824a0e93db279f74886267d276_ligand_2.pdbqt
 12 12 0 0 0
SMALL
GASTEIGER

@<TRIPOS>ATOM
      1  C          5.4180    2.8060    0.1050 C.3     1  UNL1        0.1270
      2  C          6.2030    3.8080    0.8480 C.2     1  UNL1        0.3030
      3  O          6.1730    3.7980    2.1080 O.2     1  UNL1       -0.2520
      4  O          6.9850    4.7750    0.2000 O.3     1  UNL1       -0.4810
      5  H          7.9810    4.7900    0.3790 H       1  UNL1        0.2960
      6  C          4.9200    1.6870    1.0020 C.3     1  UNL1        0.0470
      7  C          5.7890    0.4870    0.8890 C.2     1  UNL1       -0.0470
      8  C          6.5180    0.2470   -0.2680 C.2     1  UNL1        0.0040
      9  C          5.9140   -0.4460    1.9020 C.2     1  UNL1        0.0040
     10  C          7.3230   -0.8600   -0.4080 C.2     1  UNL1        0.0000
     11  C          6.7210   -1.5540    1.7600 C.2     1  UNL1        0.0000
     12  C          7.4390   -1.7860    0.6090 C.2     1  UNL1        0.0000
@<TRIPOS>BOND
     1    10     8    1
     2    10    12    2
     3     8     7    2
     4     1     2    1
     5     1     6    1
     6     4     5    1
     7     4     2    1
     8    12    11    1
     9     2     3    2
    10     7     6    1
    11     7     9    1
    12    11     9    2
