@<TRIPOS>MOLECULE
/home/cewinharhar/GITHUB/reincatalyze/data/processed/docking_pred/2023-Apr-25-2248_maxeplen10_maxtrainstep1000_exh16_gamma099_lrac3e-4_lrcr1e-3/e4036567ae6c7c824a0e93db279f74886267d276_ligand_2.pdbqt
 12 12 0 0 0
SMALL
GASTEIGER

@<TRIPOS>ATOM
      1  C          8.4420   -0.6880   -2.0720 C.3     1  UNL1        0.1270
      2  C          8.4300   -1.9290   -2.8670 C.2     1  UNL1        0.3030
      3  O          7.3220   -2.4210   -3.2160 O.2     1  UNL1       -0.2520
      4  O          9.6090   -2.5830   -3.2510 O.3     1  UNL1       -0.4810
      5  H          9.8770   -3.4240   -2.7590 H       1  UNL1        0.2960
      6  C          7.1140    0.0460   -2.1340 C.3     1  UNL1        0.0470
      7  C          6.5110    0.1700   -0.7810 C.2     1  UNL1       -0.0470
      8  C          6.6430   -0.8520    0.1490 C.2     1  UNL1        0.0040
      9  C          5.7900    1.2800   -0.3820 C.2     1  UNL1        0.0040
     10  C          6.0880   -0.7720    1.4050 C.2     1  UNL1        0.0000
     11  C          5.2350    1.3590    0.8770 C.2     1  UNL1        0.0000
     12  C          5.3690    0.3400    1.7940 C.2     1  UNL1        0.0000
@<TRIPOS>BOND
     1     4     2    1
     2     4     5    1
     3     3     2    2
     4     2     1    1
     5     6     1    1
     6     6     7    1
     7     7     9    2
     8     7     8    1
     9     9    11    1
    10     8    10    2
    11    11    12    2
    12    10    12    1
