MODEL 1
REMARK VINA RESULT:      -7.2      0.000      0.000
REMARK SMILES O=C(O)CCc1ccccc1
REMARK SMILES IDX 4 1 2 2 1 3 3 4 5 6 6 7 7 8 11 9 8 10 10 11 9 12
REMARK H PARENT 3 5
REMARK Flexibility Score: inf
ROOT
ATOM      1  C   UNL     1       8.442  -0.688  -2.072  1.00  0.00     0.127 C 
ENDROOT
BRANCH   1   2
ATOM      2  C   UNL     1       8.430  -1.929  -2.867  1.00  0.00     0.303 C 
ATOM      3  O   UNL     1       7.322  -2.421  -3.216  1.00  0.00    -0.252 OA
BRANCH   2   4
ATOM      4  O   UNL     1       9.609  -2.583  -3.251  1.00  0.00    -0.481 OA
ATOM      5  H   UNL     1       9.877  -3.424  -2.759  1.00  0.00     0.296 HD
ENDBRANCH   2   4
ENDBRANCH   1   2
BRANCH   1   6
ATOM      6  C   UNL     1       7.114   0.046  -2.134  1.00  0.00     0.047 C 
BRANCH   6   7
ATOM      7  C   UNL     1       6.511   0.170  -0.781  1.00  0.00    -0.047 A 
ATOM      8  C   UNL     1       6.643  -0.852   0.149  1.00  0.00     0.004 A 
ATOM      9  C   UNL     1       5.790   1.280  -0.382  1.00  0.00     0.004 A 
ATOM     10  C   UNL     1       6.088  -0.772   1.405  1.00  0.00     0.000 A 
ATOM     11  C   UNL     1       5.235   1.359   0.877  1.00  0.00     0.000 A 
ATOM     12  C   UNL     1       5.369   0.340   1.794  1.00  0.00     0.000 A 
ENDBRANCH   6   7
ENDBRANCH   1   6
TORSDOF 4
ENDMDL
MODEL 2
REMARK VINA RESULT:      -7.2      0.051      1.421
REMARK SMILES O=C(O)CCc1ccccc1
REMARK SMILES IDX 4 1 2 2 1 3 3 4 5 6 6 7 7 8 11 9 8 10 10 11 9 12
REMARK H PARENT 3 5
REMARK Flexibility Score: inf
ROOT
ATOM      1  C   UNL     1       8.410  -0.670  -2.109  1.00  0.00     0.127 C 
ENDROOT
BRANCH   1   2
ATOM      2  C   UNL     1       8.399  -1.928  -2.877  1.00  0.00     0.303 C 
ATOM      3  O   UNL     1       7.292  -2.419  -3.231  1.00  0.00    -0.252 OA
BRANCH   2   4
ATOM      4  O   UNL     1       9.578  -2.599  -3.231  1.00  0.00    -0.481 OA
ATOM      5  H   UNL     1       9.866  -2.592  -4.200  1.00  0.00     0.296 HD
ENDBRANCH   2   4
ENDBRANCH   1   2
BRANCH   1   6
ATOM      6  C   UNL     1       7.061   0.025  -2.126  1.00  0.00     0.047 C 
BRANCH   6   7
ATOM      7  C   UNL     1       6.486   0.106  -0.758  1.00  0.00    -0.047 A 
ATOM      8  C   UNL     1       5.786   1.233  -0.349  1.00  0.00     0.004 A 
ATOM      9  C   UNL     1       6.620  -0.909   0.172  1.00  0.00     0.004 A 
ATOM     10  C   UNL     1       5.251   1.343   0.914  1.00  0.00     0.000 A 
ATOM     11  C   UNL     1       6.084  -0.797   1.437  1.00  0.00     0.000 A 
ATOM     12  C   UNL     1       5.392   0.324   1.835  1.00  0.00     0.000 A 
ENDBRANCH   6   7
ENDBRANCH   1   6
TORSDOF 4
ENDMDL
MODEL 3
REMARK VINA RESULT:      -6.8      3.312      5.164
REMARK SMILES O=C(O)CCc1ccccc1
REMARK SMILES IDX 4 1 2 2 1 3 3 4 5 6 6 7 7 8 11 9 8 10 10 11 9 12
REMARK H PARENT 3 5
REMARK Flexibility Score: inf
ROOT
ATOM      1  C   UNL     1       4.991   1.789   0.719  1.00  0.00     0.127 C 
ENDROOT
BRANCH   1   2
ATOM      2  C   UNL     1       4.473   1.114   1.922  1.00  0.00     0.303 C 
ATOM      3  O   UNL     1       5.167   0.211   2.464  1.00  0.00    -0.252 OA
BRANCH   2   4
ATOM      4  O   UNL     1       3.232   1.442   2.488  1.00  0.00    -0.481 OA
ATOM      5  H   UNL     1       2.559   0.703   2.638  1.00  0.00     0.296 HD
ENDBRANCH   2   4
ENDBRANCH   1   2
BRANCH   1   6
ATOM      6  C   UNL     1       6.504   1.918   0.739  1.00  0.00     0.047 C 
BRANCH   6   7
ATOM      7  C   UNL     1       7.122   1.099  -0.336  1.00  0.00    -0.047 A 
ATOM      8  C   UNL     1       8.470   1.228  -0.638  1.00  0.00     0.004 A 
ATOM      9  C   UNL     1       6.405   0.187  -1.089  1.00  0.00     0.004 A 
ATOM     10  C   UNL     1       9.070   0.493  -1.634  1.00  0.00     0.000 A 
ATOM     11  C   UNL     1       7.007  -0.549  -2.087  1.00  0.00     0.000 A 
ATOM     12  C   UNL     1       8.345  -0.414  -2.381  1.00  0.00     0.000 A 
ENDBRANCH   6   7
ENDBRANCH   1   6
TORSDOF 4
ENDMDL
MODEL 4
REMARK VINA RESULT:      -6.6      1.869      2.919
REMARK SMILES O=C(O)CCc1ccccc1
REMARK SMILES IDX 4 1 2 2 1 3 3 4 5 6 6 7 7 8 11 9 8 10 10 11 9 12
REMARK H PARENT 3 5
REMARK Flexibility Score: inf
ROOT
ATOM      1  C   UNL     1       8.076  -1.558   1.134  1.00  0.00     0.127 C 
ENDROOT
BRANCH   1   2
ATOM      2  C   UNL     1       8.421  -2.743   0.329  1.00  0.00     0.303 C 
ATOM      3  O   UNL     1       9.087  -3.672   0.862  1.00  0.00    -0.252 OA
BRANCH   2   4
ATOM      4  O   UNL     1       8.032  -2.876  -1.012  1.00  0.00    -0.481 OA
ATOM      5  H   UNL     1       7.077  -3.139  -1.214  1.00  0.00     0.296 HD
ENDBRANCH   2   4
ENDBRANCH   1   2
BRANCH   1   6
ATOM      6  C   UNL     1       6.580  -1.436   1.364  1.00  0.00     0.047 C 
BRANCH   6   7
ATOM      7  C   UNL     1       6.061  -0.153   0.823  1.00  0.00    -0.047 A 
ATOM      8  C   UNL     1       6.328   0.223  -0.486  1.00  0.00     0.004 A 
ATOM      9  C   UNL     1       5.308   0.728   1.578  1.00  0.00     0.004 A 
ATOM     10  C   UNL     1       5.870   1.409  -1.013  1.00  0.00     0.000 A 
ATOM     11  C   UNL     1       4.851   1.915   1.048  1.00  0.00     0.000 A 
ATOM     12  C   UNL     1       5.120   2.281  -0.251  1.00  0.00     0.000 A 
ENDBRANCH   6   7
ENDBRANCH   1   6
TORSDOF 4
ENDMDL
MODEL 5
REMARK VINA RESULT:      -6.5      3.778      5.008
REMARK SMILES O=C(O)CCc1ccccc1
REMARK SMILES IDX 4 1 2 2 1 3 3 4 5 6 6 7 7 8 11 9 8 10 10 11 9 12
REMARK H PARENT 3 5
REMARK Flexibility Score: inf
ROOT
ATOM      1  C   UNL     1       5.418   2.806   0.105  1.00  0.00     0.127 C 
ENDROOT
BRANCH   1   2
ATOM      2  C   UNL     1       6.203   3.808   0.848  1.00  0.00     0.303 C 
ATOM      3  O   UNL     1       6.173   3.798   2.108  1.00  0.00    -0.252 OA
BRANCH   2   4
ATOM      4  O   UNL     1       6.985   4.775   0.200  1.00  0.00    -0.481 OA
ATOM      5  H   UNL     1       7.981   4.790   0.379  1.00  0.00     0.296 HD
ENDBRANCH   2   4
ENDBRANCH   1   2
BRANCH   1   6
ATOM      6  C   UNL     1       4.920   1.687   1.002  1.00  0.00     0.047 C 
BRANCH   6   7
ATOM      7  C   UNL     1       5.789   0.487   0.889  1.00  0.00    -0.047 A 
ATOM      8  C   UNL     1       6.518   0.247  -0.268  1.00  0.00     0.004 A 
ATOM      9  C   UNL     1       5.914  -0.446   1.902  1.00  0.00     0.004 A 
ATOM     10  C   UNL     1       7.323  -0.860  -0.408  1.00  0.00     0.000 A 
ATOM     11  C   UNL     1       6.721  -1.554   1.760  1.00  0.00     0.000 A 
ATOM     12  C   UNL     1       7.439  -1.786   0.609  1.00  0.00     0.000 A 
ENDBRANCH   6   7
ENDBRANCH   1   6
TORSDOF 4
ENDMDL
