@<TRIPOS>MOLECULE
/home/cewinharhar/GITHUB/reincatalyze/data/processed/docking_pred/2023-Apr-25-2248_maxeplen10_maxtrainstep1000_exh16_gamma099_lrac3e-4_lrcr1e-3/e4036567ae6c7c824a0e93db279f74886267d276_ligand_2.pdbqt
 12 12 0 0 0
SMALL
GASTEIGER

@<TRIPOS>ATOM
      1  C          8.4100   -0.6700   -2.1090 C.3     1  UNL1        0.1270
      2  C          8.3990   -1.9280   -2.8770 C.2     1  UNL1        0.3030
      3  O          7.2920   -2.4190   -3.2310 O.2     1  UNL1       -0.2520
      4  O          9.5780   -2.5990   -3.2310 O.3     1  UNL1       -0.4810
      5  H          9.8660   -2.5920   -4.2000 H       1  UNL1        0.2960
      6  C          7.0610    0.0250   -2.1260 C.3     1  UNL1        0.0470
      7  C          6.4860    0.1060   -0.7580 C.2     1  UNL1       -0.0470
      8  C          5.7860    1.2330   -0.3490 C.2     1  UNL1        0.0040
      9  C          6.6200   -0.9090    0.1720 C.2     1  UNL1        0.0040
     10  C          5.2510    1.3430    0.9140 C.2     1  UNL1        0.0000
     11  C          6.0840   -0.7970    1.4370 C.2     1  UNL1        0.0000
     12  C          5.3920    0.3240    1.8350 C.2     1  UNL1        0.0000
@<TRIPOS>BOND
     1     5     4    1
     2     3     2    2
     3     4     2    1
     4     2     1    1
     5     6     1    1
     6     6     7    1
     7     7     8    2
     8     7     9    1
     9     8    10    1
    10     9    11    2
    11    10    12    2
    12    11    12    1
