@<TRIPOS>MOLECULE
/home/cewinharhar/GITHUB/reincatalyze/data/processed/docking_pred/2023-Apr-25-2248_maxeplen10_maxtrainstep1000_exh16_gamma099_lrac3e-4_lrcr1e-3/e4036567ae6c7c824a0e93db279f74886267d276_ligand_2.pdbqt
 12 12 0 0 0
SMALL
GASTEIGER

@<TRIPOS>ATOM
      1  C          4.9910    1.7890    0.7190 C.3     1  UNL1        0.1270
      2  C          4.4730    1.1140    1.9220 C.2     1  UNL1        0.3030
      3  O          5.1670    0.2110    2.4640 O.2     1  UNL1       -0.2520
      4  O          3.2320    1.4420    2.4880 O.3     1  UNL1       -0.4810
      5  H          2.5590    0.7030    2.6380 H       1  UNL1        0.2960
      6  C          6.5040    1.9180    0.7390 C.3     1  UNL1        0.0470
      7  C          7.1220    1.0990   -0.3360 C.2     1  UNL1       -0.0470
      8  C          8.4700    1.2280   -0.6380 C.2     1  UNL1        0.0040
      9  C          6.4050    0.1870   -1.0890 C.2     1  UNL1        0.0040
     10  C          9.0700    0.4930   -1.6340 C.2     1  UNL1        0.0000
     11  C          7.0070   -0.5490   -2.0870 C.2     1  UNL1        0.0000
     12  C          8.3450   -0.4140   -2.3810 C.2     1  UNL1        0.0000
@<TRIPOS>BOND
     1    12    11    2
     2    12    10    1
     3    11     9    1
     4    10     8    2
     5     9     7    2
     6     8     7    1
     7     7     6    1
     8     1     6    1
     9     1     2    1
    10     2     3    2
    11     2     4    1
    12     4     5    1
