@<TRIPOS>MOLECULE
/home/cewinharhar/GITHUB/reincatalyze/data/processed/docking_pred/2023-Apr-25-2248_maxeplen10_maxtrainstep1000_exh16_gamma099_lrac3e-4_lrcr1e-3/e5153a6a2872aa0f73be7da8df97a591d10f8a10_ligand_2.pdbqt
 12 12 0 0 0
SMALL
GASTEIGER

@<TRIPOS>ATOM
      1  C          5.0190    1.7440    0.7130 C.3     1  UNL1        0.1270
      2  C          4.4830    1.0910    1.9200 C.2     1  UNL1        0.3030
      3  O          5.1570    0.1820    2.4760 O.2     1  UNL1       -0.2520
      4  O          3.2450    1.4470    2.4760 O.3     1  UNL1       -0.4810
      5  H          2.4990    1.7280    1.8540 H       1  UNL1        0.2960
      6  C          6.5310    1.8690    0.7520 C.3     1  UNL1        0.0470
      7  C          7.1600    1.0820   -0.3410 C.2     1  UNL1       -0.0470
      8  C          6.4090    0.1890   -1.0920 C.2     1  UNL1        0.0040
      9  C          8.5010    1.1830   -0.6600 C.2     1  UNL1        0.0040
     10  C          6.9630   -0.5610   -2.1030 C.2     1  UNL1        0.0000
     11  C          9.0550    0.4310   -1.6730 C.2     1  UNL1        0.0000
     12  C          8.3040   -0.4540   -2.4130 C.2     1  UNL1        0.0000
@<TRIPOS>BOND
     1    12    10    2
     2    12    11    1
     3    10     8    1
     4    11     9    2
     5     8     7    2
     6     9     7    1
     7     7     6    1
     8     1     6    1
     9     1     2    1
    10     5     4    1
    11     2     3    2
    12     2     4    1
