@<TRIPOS>MOLECULE
/home/cewinharhar/GITHUB/reincatalyze/data/processed/docking_pred/2023-Apr-25-2248_maxeplen10_maxtrainstep1000_exh16_gamma099_lrac3e-4_lrcr1e-3/e5153a6a2872aa0f73be7da8df97a591d10f8a10_ligand_2.pdbqt
 12 12 0 0 0
SMALL
GASTEIGER

@<TRIPOS>ATOM
      1  C          8.2880    0.1240   -2.1890 C.3     1  UNL1        0.1270
      2  C          9.4000    0.3450   -1.2470 C.2     1  UNL1        0.3030
      3  O          9.4840   -0.3790   -0.2180 O.2     1  UNL1       -0.2520
      4  O         10.3720    1.3340   -1.4570 O.3     1  UNL1       -0.4810
      5  H         10.3570    1.8500   -2.3260 H       1  UNL1        0.2960
      6  C          7.1430   -0.6450   -1.5550 C.3     1  UNL1        0.0470
      7  C          6.3620    0.2230   -0.6350 C.2     1  UNL1       -0.0470
      8  C          6.1220   -0.1670    0.6740 C.2     1  UNL1        0.0040
      9  C          5.8330    1.4400   -1.0250 C.2     1  UNL1        0.0040
     10  C          5.3940    0.6090    1.5460 C.2     1  UNL1        0.0000
     11  C          5.1040    2.2170   -0.1500 C.2     1  UNL1        0.0000
     12  C          4.8690    1.8220    1.1480 C.2     1  UNL1        0.0000
@<TRIPOS>BOND
     1     5     4    1
     2     1     6    1
     3     1     2    1
     4     6     7    1
     5     4     2    1
     6     2     3    2
     7     9     7    2
     8     9    11    1
     9     7     8    1
    10    11    12    2
    11     8    10    2
    12    12    10    1
