@<TRIPOS>MOLECULE
/home/cewinharhar/GITHUB/reincatalyze/data/processed/docking_pred/2023-Apr-25-2248_maxeplen10_maxtrainstep1000_exh16_gamma099_lrac3e-4_lrcr1e-3/e5153a6a2872aa0f73be7da8df97a591d10f8a10_ligand_2.pdbqt
 12 12 0 0 0
SMALL
GASTEIGER

@<TRIPOS>ATOM
      1  C          4.9990    1.7550    0.7050 C.3     1  UNL1        0.1270
      2  C          4.4680    1.1050    1.9160 C.2     1  UNL1        0.3030
      3  O          5.1460    0.2000    2.4730 O.2     1  UNL1       -0.2520
      4  O          3.2310    1.4600    2.4750 O.3     1  UNL1       -0.4810
      5  H          2.5140    1.8290    1.8650 H       1  UNL1        0.2960
      6  C          6.5120    1.8770    0.7360 C.3     1  UNL1        0.0470
      7  C          7.1340    1.0680   -0.3440 C.2     1  UNL1       -0.0470
      8  C          8.4780    1.2170   -0.6550 C.2     1  UNL1        0.0040
      9  C          6.4240    0.1480   -1.0940 C.2     1  UNL1        0.0040
     10  C          9.0810    0.4900   -1.6570 C.2     1  UNL1        0.0000
     11  C          7.0290   -0.5780   -2.0960 C.2     1  UNL1        0.0000
     12  C          8.3630   -0.4250   -2.4000 C.2     1  UNL1        0.0000
@<TRIPOS>BOND
     1    12    11    2
     2    12    10    1
     3    11     9    1
     4    10     8    2
     5     9     7    2
     6     8     7    1
     7     7     6    1
     8     1     6    1
     9     1     2    1
    10     5     4    1
    11     2     3    2
    12     2     4    1
