@<TRIPOS>MOLECULE
/home/cewinharhar/GITHUB/reincatalyze/data/processed/docking_pred/2023-Apr-25-2248_maxeplen10_maxtrainstep1000_exh16_gamma099_lrac3e-4_lrcr1e-3/e5153a6a2872aa0f73be7da8df97a591d10f8a10_ligand_2.pdbqt
 12 12 0 0 0
SMALL
GASTEIGER

@<TRIPOS>ATOM
      1  C          8.4150   -0.6000   -2.2100 C.3     1  UNL1        0.1270
      2  C          8.4500   -1.8970   -2.9090 C.2     1  UNL1        0.3030
      3  O          9.5560   -2.4840   -3.0540 O.2     1  UNL1       -0.2520
      4  O          7.2930   -2.5030   -3.4180 O.3     1  UNL1       -0.4810
      5  H          7.3690   -3.4270   -3.8210 H       1  UNL1        0.2960
      6  C          7.0210    0.0010   -2.1850 C.3     1  UNL1        0.0470
      7  C          6.4960    0.0710   -0.7960 C.2     1  UNL1       -0.0470
      8  C          5.8570    1.2140   -0.3380 C.2     1  UNL1        0.0040
      9  C          6.6190   -0.9720    0.1040 C.2     1  UNL1        0.0040
     10  C          5.3690    1.3140    0.9450 C.2     1  UNL1        0.0000
     11  C          6.1290   -0.8700    1.3880 C.2     1  UNL1        0.0000
     12  C          5.4980    0.2680    1.8360 C.2     1  UNL1        0.0000
@<TRIPOS>BOND
     1     5     4    1
     2     4     2    1
     3     3     2    2
     4     2     1    1
     5     1     6    1
     6     6     7    1
     7     7     8    2
     8     7     9    1
     9     8    10    1
    10     9    11    2
    11    10    12    2
    12    11    12    1
