@<TRIPOS>MOLECULE
/home/cewinharhar/GITHUB/reincatalyze/data/processed/docking_pred/2023-Apr-25-2248_maxeplen10_maxtrainstep1000_exh16_gamma099_lrac3e-4_lrcr1e-3/e5153a6a2872aa0f73be7da8df97a591d10f8a10_ligand_2.pdbqt
 12 12 0 0 0
SMALL
GASTEIGER

@<TRIPOS>ATOM
      1  C          8.4060   -0.6630   -2.1260 C.3     1  UNL1        0.1270
      2  C          8.4040   -1.9250   -2.8870 C.2     1  UNL1        0.3030
      3  O          7.3020   -2.4250   -3.2410 O.2     1  UNL1       -0.2520
      4  O          9.5880   -2.5900   -3.2340 O.3     1  UNL1       -0.4810
      5  H         10.4720   -2.1670   -2.9840 H       1  UNL1        0.2960
      6  C          7.0480    0.0150   -2.1360 C.3     1  UNL1        0.0470
      7  C          6.4910    0.1140   -0.7610 C.2     1  UNL1       -0.0470
      8  C          6.6280   -0.9370    0.1350 C.2     1  UNL1        0.0040
      9  C          5.8110    1.2290   -0.3070 C.2     1  UNL1        0.0040
     10  C          6.1160   -0.8810    1.4100 C.2     1  UNL1        0.0000
     11  C          5.2980    1.2830    0.9710 C.2     1  UNL1        0.0000
     12  C          5.4370    0.2360    1.8540 C.2     1  UNL1        0.0000
@<TRIPOS>BOND
     1     3     2    2
     2     4     5    1
     3     4     2    1
     4     2     1    1
     5     6     1    1
     6     6     7    1
     7     7     9    2
     8     7     8    1
     9     9    11    1
    10     8    10    2
    11    11    12    2
    12    10    12    1
