MODEL 1
REMARK VINA RESULT:      -7.3      0.000      0.000
REMARK SMILES O=C(O)CCc1ccccc1
REMARK SMILES IDX 4 1 2 2 1 3 3 4 5 6 6 7 7 8 11 9 8 10 10 11 9 12
REMARK H PARENT 3 5
REMARK Flexibility Score: inf
ROOT
ATOM      1  C   UNL     1       8.415  -0.600  -2.210  1.00  0.00     0.127 C 
ENDROOT
BRANCH   1   2
ATOM      2  C   UNL     1       8.450  -1.897  -2.909  1.00  0.00     0.303 C 
ATOM      3  O   UNL     1       9.556  -2.484  -3.054  1.00  0.00    -0.252 OA
BRANCH   2   4
ATOM      4  O   UNL     1       7.293  -2.503  -3.418  1.00  0.00    -0.481 OA
ATOM      5  H   UNL     1       7.369  -3.427  -3.821  1.00  0.00     0.296 HD
ENDBRANCH   2   4
ENDBRANCH   1   2
BRANCH   1   6
ATOM      6  C   UNL     1       7.021   0.001  -2.185  1.00  0.00     0.047 C 
BRANCH   6   7
ATOM      7  C   UNL     1       6.496   0.071  -0.796  1.00  0.00    -0.047 A 
ATOM      8  C   UNL     1       5.857   1.214  -0.338  1.00  0.00     0.004 A 
ATOM      9  C   UNL     1       6.619  -0.972   0.104  1.00  0.00     0.004 A 
ATOM     10  C   UNL     1       5.369   1.314   0.945  1.00  0.00     0.000 A 
ATOM     11  C   UNL     1       6.129  -0.870   1.388  1.00  0.00     0.000 A 
ATOM     12  C   UNL     1       5.498   0.268   1.836  1.00  0.00     0.000 A 
ENDBRANCH   6   7
ENDBRANCH   1   6
TORSDOF 4
ENDMDL
MODEL 2
REMARK VINA RESULT:      -7.3      0.105      1.723
REMARK SMILES O=C(O)CCc1ccccc1
REMARK SMILES IDX 4 1 2 2 1 3 3 4 5 6 6 7 7 8 11 9 8 10 10 11 9 12
REMARK H PARENT 3 5
REMARK Flexibility Score: inf
ROOT
ATOM      1  C   UNL     1       8.406  -0.663  -2.126  1.00  0.00     0.127 C 
ENDROOT
BRANCH   1   2
ATOM      2  C   UNL     1       8.404  -1.925  -2.887  1.00  0.00     0.303 C 
ATOM      3  O   UNL     1       7.302  -2.425  -3.241  1.00  0.00    -0.252 OA
BRANCH   2   4
ATOM      4  O   UNL     1       9.588  -2.590  -3.234  1.00  0.00    -0.481 OA
ATOM      5  H   UNL     1      10.472  -2.167  -2.984  1.00  0.00     0.296 HD
ENDBRANCH   2   4
ENDBRANCH   1   2
BRANCH   1   6
ATOM      6  C   UNL     1       7.048   0.015  -2.136  1.00  0.00     0.047 C 
BRANCH   6   7
ATOM      7  C   UNL     1       6.491   0.114  -0.761  1.00  0.00    -0.047 A 
ATOM      8  C   UNL     1       6.628  -0.937   0.135  1.00  0.00     0.004 A 
ATOM      9  C   UNL     1       5.811   1.229  -0.307  1.00  0.00     0.004 A 
ATOM     10  C   UNL     1       6.116  -0.881   1.410  1.00  0.00     0.000 A 
ATOM     11  C   UNL     1       5.298   1.283   0.971  1.00  0.00     0.000 A 
ATOM     12  C   UNL     1       5.437   0.236   1.854  1.00  0.00     0.000 A 
ENDBRANCH   6   7
ENDBRANCH   1   6
TORSDOF 4
ENDMDL
MODEL 3
REMARK VINA RESULT:      -6.8      3.388      5.076
REMARK SMILES O=C(O)CCc1ccccc1
REMARK SMILES IDX 4 1 2 2 1 3 3 4 5 6 6 7 7 8 11 9 8 10 10 11 9 12
REMARK H PARENT 3 5
REMARK Flexibility Score: inf
ROOT
ATOM      1  C   UNL     1       5.019   1.744   0.713  1.00  0.00     0.127 C 
ENDROOT
BRANCH   1   2
ATOM      2  C   UNL     1       4.483   1.091   1.920  1.00  0.00     0.303 C 
ATOM      3  O   UNL     1       5.157   0.182   2.476  1.00  0.00    -0.252 OA
BRANCH   2   4
ATOM      4  O   UNL     1       3.245   1.447   2.476  1.00  0.00    -0.481 OA
ATOM      5  H   UNL     1       2.499   1.728   1.854  1.00  0.00     0.296 HD
ENDBRANCH   2   4
ENDBRANCH   1   2
BRANCH   1   6
ATOM      6  C   UNL     1       6.531   1.869   0.752  1.00  0.00     0.047 C 
BRANCH   6   7
ATOM      7  C   UNL     1       7.160   1.082  -0.341  1.00  0.00    -0.047 A 
ATOM      8  C   UNL     1       6.409   0.189  -1.092  1.00  0.00     0.004 A 
ATOM      9  C   UNL     1       8.501   1.183  -0.660  1.00  0.00     0.004 A 
ATOM     10  C   UNL     1       6.963  -0.561  -2.103  1.00  0.00     0.000 A 
ATOM     11  C   UNL     1       9.055   0.431  -1.673  1.00  0.00     0.000 A 
ATOM     12  C   UNL     1       8.304  -0.454  -2.413  1.00  0.00     0.000 A 
ENDBRANCH   6   7
ENDBRANCH   1   6
TORSDOF 4
ENDMDL
MODEL 4
REMARK VINA RESULT:      -6.8      3.394      5.068
REMARK SMILES O=C(O)CCc1ccccc1
REMARK SMILES IDX 4 1 2 2 1 3 3 4 5 6 6 7 7 8 11 9 8 10 10 11 9 12
REMARK H PARENT 3 5
REMARK Flexibility Score: inf
ROOT
ATOM      1  C   UNL     1       4.999   1.755   0.705  1.00  0.00     0.127 C 
ENDROOT
BRANCH   1   2
ATOM      2  C   UNL     1       4.468   1.105   1.916  1.00  0.00     0.303 C 
ATOM      3  O   UNL     1       5.146   0.200   2.473  1.00  0.00    -0.252 OA
BRANCH   2   4
ATOM      4  O   UNL     1       3.231   1.460   2.475  1.00  0.00    -0.481 OA
ATOM      5  H   UNL     1       2.514   1.829   1.865  1.00  0.00     0.296 HD
ENDBRANCH   2   4
ENDBRANCH   1   2
BRANCH   1   6
ATOM      6  C   UNL     1       6.512   1.877   0.736  1.00  0.00     0.047 C 
BRANCH   6   7
ATOM      7  C   UNL     1       7.134   1.068  -0.344  1.00  0.00    -0.047 A 
ATOM      8  C   UNL     1       8.478   1.217  -0.655  1.00  0.00     0.004 A 
ATOM      9  C   UNL     1       6.424   0.148  -1.094  1.00  0.00     0.004 A 
ATOM     10  C   UNL     1       9.081   0.490  -1.657  1.00  0.00     0.000 A 
ATOM     11  C   UNL     1       7.029  -0.578  -2.096  1.00  0.00     0.000 A 
ATOM     12  C   UNL     1       8.363  -0.425  -2.400  1.00  0.00     0.000 A 
ENDBRANCH   6   7
ENDBRANCH   1   6
TORSDOF 4
ENDMDL
MODEL 5
REMARK VINA RESULT:      -6.6      1.945      2.671
REMARK SMILES O=C(O)CCc1ccccc1
REMARK SMILES IDX 4 1 2 2 1 3 3 4 5 6 6 7 7 8 11 9 8 10 10 11 9 12
REMARK H PARENT 3 5
REMARK Flexibility Score: inf
ROOT
ATOM      1  C   UNL     1       8.288   0.124  -2.189  1.00  0.00     0.127 C 
ENDROOT
BRANCH   1   2
ATOM      2  C   UNL     1       9.400   0.345  -1.247  1.00  0.00     0.303 C 
ATOM      3  O   UNL     1       9.484  -0.379  -0.218  1.00  0.00    -0.252 OA
BRANCH   2   4
ATOM      4  O   UNL     1      10.372   1.334  -1.457  1.00  0.00    -0.481 OA
ATOM      5  H   UNL     1      10.357   1.850  -2.326  1.00  0.00     0.296 HD
ENDBRANCH   2   4
ENDBRANCH   1   2
BRANCH   1   6
ATOM      6  C   UNL     1       7.143  -0.645  -1.555  1.00  0.00     0.047 C 
BRANCH   6   7
ATOM      7  C   UNL     1       6.362   0.223  -0.635  1.00  0.00    -0.047 A 
ATOM      8  C   UNL     1       6.122  -0.167   0.674  1.00  0.00     0.004 A 
ATOM      9  C   UNL     1       5.833   1.440  -1.025  1.00  0.00     0.004 A 
ATOM     10  C   UNL     1       5.394   0.609   1.546  1.00  0.00     0.000 A 
ATOM     11  C   UNL     1       5.104   2.217  -0.150  1.00  0.00     0.000 A 
ATOM     12  C   UNL     1       4.869   1.822   1.148  1.00  0.00     0.000 A 
ENDBRANCH   6   7
ENDBRANCH   1   6
TORSDOF 4
ENDMDL
