@<TRIPOS>MOLECULE
/home/cewinharhar/GITHUB/reincatalyze/data/processed/docking_pred/2023-Apr-25-2248_maxeplen10_maxtrainstep1000_exh16_gamma099_lrac3e-4_lrcr1e-3/e69dee760b6a4f483691253cffcee702e9155e2b_ligand_2.pdbqt
 12 12 0 0 0
SMALL
GASTEIGER

@<TRIPOS>ATOM
      1  C          7.9600   -2.2860    0.7080 C.3     1  UNL1        0.1270
      2  C          8.7790   -3.4370    0.2880 C.2     1  UNL1        0.3030
      3  O          9.6520   -3.8880    1.0790 O.2     1  UNL1       -0.2520
      4  O          8.6210   -4.0510   -0.9630 O.3     1  UNL1       -0.4810
      5  H          9.4410   -4.4130   -1.4310 H       1  UNL1        0.2960
      6  C          7.4430   -1.4880   -0.4760 C.3     1  UNL1        0.0470
      7  C          6.5940   -0.3540   -0.0240 C.2     1  UNL1       -0.0470
      8  C          6.0510   -0.3420    1.2530 C.2     1  UNL1        0.0040
      9  C          6.2940    0.7250   -0.8340 C.2     1  UNL1        0.0040
     10  C          5.2530    0.6870    1.6980 C.2     1  UNL1        0.0000
     11  C          5.4950    1.7560   -0.3870 C.2     1  UNL1        0.0000
     12  C          4.9590    1.7600    0.8810 C.2     1  UNL1        0.0000
@<TRIPOS>BOND
     1     5     4    1
     2     4     2    1
     3     9    11    1
     4     9     7    2
     5     6     7    1
     6     6     1    1
     7    11    12    2
     8     7     8    1
     9     2     1    1
    10     2     3    2
    11    12    10    1
    12     8    10    2
