@<TRIPOS>MOLECULE
/home/cewinharhar/GITHUB/reincatalyze/data/processed/docking_pred/2023-Apr-25-2248_maxeplen10_maxtrainstep1000_exh16_gamma099_lrac3e-4_lrcr1e-3/e69dee760b6a4f483691253cffcee702e9155e2b_ligand_2.pdbqt
 12 12 0 0 0
SMALL
GASTEIGER

@<TRIPOS>ATOM
      1  C          8.4160   -0.6940   -2.0590 C.3     1  UNL1        0.1270
      2  C          8.4090   -1.9260   -2.8680 C.2     1  UNL1        0.3030
      3  O          7.3040   -2.4190   -3.2230 O.2     1  UNL1       -0.2520
      4  O          9.5910   -2.5710   -3.2600 O.3     1  UNL1       -0.4810
      5  H          9.5800   -3.5760   -3.3690 H       1  UNL1        0.2960
      6  C          7.0850    0.0340   -2.1100 C.3     1  UNL1        0.0470
      7  C          6.4920    0.1550   -0.7530 C.2     1  UNL1       -0.0470
      8  C          6.6050   -0.8800    0.1640 C.2     1  UNL1        0.0040
      9  C          5.8000    1.2780   -0.3360 C.2     1  UNL1        0.0040
     10  C          6.0590   -0.8020    1.4250 C.2     1  UNL1        0.0000
     11  C          5.2530    1.3540    0.9270 C.2     1  UNL1        0.0000
     12  C          5.3690    0.3230    1.8300 C.2     1  UNL1        0.0000
@<TRIPOS>BOND
     1     5     4    1
     2     4     2    1
     3     3     2    2
     4     2     1    1
     5     6     1    1
     6     6     7    1
     7     7     9    2
     8     7     8    1
     9     9    11    1
    10     8    10    2
    11    11    12    2
    12    10    12    1
