@<TRIPOS>MOLECULE
/home/cewinharhar/GITHUB/reincatalyze/data/processed/docking_pred/2023-Apr-25-2248_maxeplen10_maxtrainstep1000_exh16_gamma099_lrac3e-4_lrcr1e-3/e69dee760b6a4f483691253cffcee702e9155e2b_ligand_2.pdbqt
 12 12 0 0 0
SMALL
GASTEIGER

@<TRIPOS>ATOM
      1  C          8.3690   -1.0630   -1.6390 C.3     1  UNL1        0.1270
      2  C          8.3830   -2.0370   -2.7440 C.2     1  UNL1        0.3030
      3  O          7.2880   -2.4090   -3.2470 O.2     1  UNL1       -0.2520
      4  O          9.5750   -2.5670   -3.2590 O.3     1  UNL1       -0.4810
      5  H         10.0040   -2.1100   -4.0520 H       1  UNL1        0.2960
      6  C          7.5030   -1.5220   -0.4800 C.3     1  UNL1        0.0470
      7  C          6.6280   -0.4210    0.0000 C.2     1  UNL1       -0.0470
      8  C          6.3390    0.6620   -0.8180 C.2     1  UNL1        0.0040
      9  C          6.0700   -0.4050    1.2660 C.2     1  UNL1        0.0040
     10  C          5.5420    1.7020   -0.4000 C.2     1  UNL1        0.0000
     11  C          5.2710    0.6380    1.6830 C.2     1  UNL1        0.0000
     12  C          4.9910    1.7090    0.8660 C.2     1  UNL1        0.0000
@<TRIPOS>BOND
     1     5     4    1
     2     4     2    1
     3     3     2    2
     4     2     1    1
     5     1     6    1
     6     8    10    1
     7     8     7    2
     8     6     7    1
     9    10    12    2
    10     7     9    1
    11    12    11    1
    12     9    11    2
