@<TRIPOS>MOLECULE
/home/cewinharhar/GITHUB/reincatalyze/data/processed/docking_pred/2023-Apr-25-2248_maxeplen10_maxtrainstep1000_exh16_gamma099_lrac3e-4_lrcr1e-3/e69dee760b6a4f483691253cffcee702e9155e2b_ligand_2.pdbqt
 12 12 0 0 0
SMALL
GASTEIGER

@<TRIPOS>ATOM
      1  C          5.0140    1.8070    0.7410 C.3     1  UNL1        0.1270
      2  C          4.4670    1.1220    1.9260 C.2     1  UNL1        0.3030
      3  O          5.1380    0.1990    2.4640 O.2     1  UNL1       -0.2520
      4  O          3.2240    1.4620    2.4790 O.3     1  UNL1       -0.4810
      5  H          3.0970    2.3950    2.8460 H       1  UNL1        0.2960
      6  C          6.5300    1.8860    0.7730 C.3     1  UNL1        0.0470
      7  C          7.1280    1.0800   -0.3230 C.2     1  UNL1       -0.0470
      8  C          8.4660    1.2280   -0.6620 C.2     1  UNL1        0.0040
      9  C          6.4020    0.1620   -1.0590 C.2     1  UNL1        0.0040
     10  C          9.0470    0.5040   -1.6770 C.2     1  UNL1        0.0000
     11  C          6.9850   -0.5620   -2.0770 C.2     1  UNL1        0.0000
     12  C          8.3120   -0.4080   -2.4080 C.2     1  UNL1        0.0000
@<TRIPOS>BOND
     1    12    11    2
     2    12    10    1
     3    11     9    1
     4    10     8    2
     5     9     7    2
     6     8     7    1
     7     7     6    1
     8     1     6    1
     9     1     2    1
    10     2     3    2
    11     2     4    1
    12     4     5    1
