@<TRIPOS>MOLECULE
/home/cewinharhar/GITHUB/reincatalyze/data/processed/docking_pred/2023-Apr-25-2248_maxeplen10_maxtrainstep1000_exh16_gamma099_lrac3e-4_lrcr1e-3/e69dee760b6a4f483691253cffcee702e9155e2b_ligand_2.pdbqt
 12 12 0 0 0
SMALL
GASTEIGER

@<TRIPOS>ATOM
      1  C          8.3790   -0.5920   -2.2000 C.3     1  UNL1        0.1270
      2  C          8.3830   -1.8800   -2.9160 C.2     1  UNL1        0.3030
      3  O          7.2830   -2.4010   -3.2450 O.2     1  UNL1       -0.2520
      4  O          9.5710   -2.5480   -3.2460 O.3     1  UNL1       -0.4810
      5  H          9.5170   -3.5150   -3.5380 H       1  UNL1        0.2960
      6  C          6.9950    0.0300   -2.1470 C.3     1  UNL1        0.0470
      7  C          6.4780    0.0630   -0.7540 C.2     1  UNL1       -0.0470
      8  C          5.8430    1.1940   -0.2610 C.2     1  UNL1        0.0040
      9  C          6.6060   -1.0040    0.1170 C.2     1  UNL1        0.0040
     10  C          5.3630    1.2590    1.0270 C.2     1  UNL1        0.0000
     11  C          6.1240   -0.9370    1.4060 C.2     1  UNL1        0.0000
     12  C          5.4960    0.1890    1.8890 C.2     1  UNL1        0.0000
@<TRIPOS>BOND
     1     5     4    1
     2     4     2    1
     3     3     2    2
     4     2     1    1
     5     1     6    1
     6     6     7    1
     7     7     8    2
     8     7     9    1
     9     8    10    1
    10     9    11    2
    11    10    12    2
    12    11    12    1
