@<TRIPOS>MOLECULE
/home/cewinharhar/GITHUB/reincatalyze/data/processed/docking_pred/2023-Apr-25-2248_maxeplen10_maxtrainstep1000_exh16_gamma099_lrac3e-4_lrcr1e-3/e72dfb9ce69b60d9dd63e32278a4acfac8a78322_ligand_2.pdbqt
 12 12 0 0 0
SMALL
GASTEIGER

@<TRIPOS>ATOM
      1  C          4.9930    1.7730    0.7250 C.3     1  UNL1        0.1270
      2  C          4.4670    1.1100    1.9310 C.2     1  UNL1        0.3030
      3  O          5.1540    0.2090    2.4840 O.2     1  UNL1       -0.2520
      4  O          3.2260    1.4480    2.4890 O.3     1  UNL1       -0.4810
      5  H          2.8530    0.8660    3.2280 H       1  UNL1        0.2960
      6  C          6.5060    1.8940    0.7510 C.3     1  UNL1        0.0470
      7  C          7.1240    1.0850   -0.3330 C.2     1  UNL1       -0.0470
      8  C          8.4680    1.2300   -0.6460 C.2     1  UNL1        0.0040
      9  C          6.4090    0.1690   -1.0820 C.2     1  UNL1        0.0040
     10  C          9.0660    0.5040   -1.6500 C.2     1  UNL1        0.0000
     11  C          7.0100   -0.5580   -2.0880 C.2     1  UNL1        0.0000
     12  C          8.3440   -0.4070   -2.3940 C.2     1  UNL1        0.0000
@<TRIPOS>BOND
     1    12    11    2
     2    12    10    1
     3    11     9    1
     4    10     8    2
     5     9     7    2
     6     8     7    1
     7     7     6    1
     8     1     6    1
     9     1     2    1
    10     2     3    2
    11     2     4    1
    12     4     5    1
