MODEL 1
REMARK VINA RESULT:      -7.3      0.000      0.000
REMARK SMILES O=C(O)CCc1ccccc1
REMARK SMILES IDX 4 1 2 2 1 3 3 4 5 6 6 7 7 8 11 9 8 10 10 11 9 12
REMARK H PARENT 3 5
REMARK Flexibility Score: inf
ROOT
ATOM      1  C   UNL     1       8.392  -0.716  -2.040  1.00  0.00     0.127 C 
ENDROOT
BRANCH   1   2
ATOM      2  C   UNL     1       8.390  -1.933  -2.871  1.00  0.00     0.303 C 
ATOM      3  O   UNL     1       7.287  -2.414  -3.250  1.00  0.00    -0.252 OA
BRANCH   2   4
ATOM      4  O   UNL     1       9.574  -2.576  -3.259  1.00  0.00    -0.481 OA
ATOM      5  H   UNL     1       9.847  -2.543  -4.232  1.00  0.00     0.296 HD
ENDBRANCH   2   4
ENDBRANCH   1   2
BRANCH   1   6
ATOM      6  C   UNL     1       7.063   0.016  -2.091  1.00  0.00     0.047 C 
BRANCH   6   7
ATOM      7  C   UNL     1       6.476   0.148  -0.732  1.00  0.00    -0.047 A 
ATOM      8  C   UNL     1       6.598  -0.877   0.195  1.00  0.00     0.004 A 
ATOM      9  C   UNL     1       5.779   1.271  -0.324  1.00  0.00     0.004 A 
ATOM     10  C   UNL     1       6.057  -0.788   1.457  1.00  0.00     0.000 A 
ATOM     11  C   UNL     1       5.238   1.358   0.941  1.00  0.00     0.000 A 
ATOM     12  C   UNL     1       5.363   0.337   1.855  1.00  0.00     0.000 A 
ENDBRANCH   6   7
ENDBRANCH   1   6
TORSDOF 4
ENDMDL
MODEL 2
REMARK VINA RESULT:      -7.2      0.086      1.423
REMARK SMILES O=C(O)CCc1ccccc1
REMARK SMILES IDX 4 1 2 2 1 3 3 4 5 6 6 7 7 8 11 9 8 10 10 11 9 12
REMARK H PARENT 3 5
REMARK Flexibility Score: inf
ROOT
ATOM      1  C   UNL     1       8.380  -0.632  -2.153  1.00  0.00     0.127 C 
ENDROOT
BRANCH   1   2
ATOM      2  C   UNL     1       8.391  -1.903  -2.899  1.00  0.00     0.303 C 
ATOM      3  O   UNL     1       7.294  -2.419  -3.247  1.00  0.00    -0.252 OA
BRANCH   2   4
ATOM      4  O   UNL     1       9.582  -2.561  -3.239  1.00  0.00    -0.481 OA
ATOM      5  H   UNL     1      10.459  -2.076  -3.100  1.00  0.00     0.296 HD
ENDBRANCH   2   4
ENDBRANCH   1   2
BRANCH   1   6
ATOM      6  C   UNL     1       7.004   0.009  -2.133  1.00  0.00     0.047 C 
BRANCH   6   7
ATOM      7  C   UNL     1       6.466   0.072  -0.749  1.00  0.00    -0.047 A 
ATOM      8  C   UNL     1       5.805   1.206  -0.298  1.00  0.00     0.004 A 
ATOM      9  C   UNL     1       6.599  -0.966   0.154  1.00  0.00     0.004 A 
ATOM     10  C   UNL     1       5.305   1.300   0.981  1.00  0.00     0.000 A 
ATOM     11  C   UNL     1       6.098  -0.871   1.435  1.00  0.00     0.000 A 
ATOM     12  C   UNL     1       5.444   0.258   1.875  1.00  0.00     0.000 A 
ENDBRANCH   6   7
ENDBRANCH   1   6
TORSDOF 4
ENDMDL
MODEL 3
REMARK VINA RESULT:      -6.8      3.326      5.179
REMARK SMILES O=C(O)CCc1ccccc1
REMARK SMILES IDX 4 1 2 2 1 3 3 4 5 6 6 7 7 8 11 9 8 10 10 11 9 12
REMARK H PARENT 3 5
REMARK Flexibility Score: inf
ROOT
ATOM      1  C   UNL     1       4.993   1.773   0.725  1.00  0.00     0.127 C 
ENDROOT
BRANCH   1   2
ATOM      2  C   UNL     1       4.467   1.110   1.931  1.00  0.00     0.303 C 
ATOM      3  O   UNL     1       5.154   0.209   2.484  1.00  0.00    -0.252 OA
BRANCH   2   4
ATOM      4  O   UNL     1       3.226   1.448   2.489  1.00  0.00    -0.481 OA
ATOM      5  H   UNL     1       2.853   0.866   3.228  1.00  0.00     0.296 HD
ENDBRANCH   2   4
ENDBRANCH   1   2
BRANCH   1   6
ATOM      6  C   UNL     1       6.506   1.894   0.751  1.00  0.00     0.047 C 
BRANCH   6   7
ATOM      7  C   UNL     1       7.124   1.085  -0.333  1.00  0.00    -0.047 A 
ATOM      8  C   UNL     1       8.468   1.230  -0.646  1.00  0.00     0.004 A 
ATOM      9  C   UNL     1       6.409   0.169  -1.082  1.00  0.00     0.004 A 
ATOM     10  C   UNL     1       9.066   0.504  -1.650  1.00  0.00     0.000 A 
ATOM     11  C   UNL     1       7.010  -0.558  -2.088  1.00  0.00     0.000 A 
ATOM     12  C   UNL     1       8.344  -0.407  -2.394  1.00  0.00     0.000 A 
ENDBRANCH   6   7
ENDBRANCH   1   6
TORSDOF 4
ENDMDL
MODEL 4
REMARK VINA RESULT:      -6.6      1.952      2.622
REMARK SMILES O=C(O)CCc1ccccc1
REMARK SMILES IDX 4 1 2 2 1 3 3 4 5 6 6 7 7 8 11 9 8 10 10 11 9 12
REMARK H PARENT 3 5
REMARK Flexibility Score: inf
ROOT
ATOM      1  C   UNL     1       8.337   0.271  -2.124  1.00  0.00     0.127 C 
ENDROOT
BRANCH   1   2
ATOM      2  C   UNL     1       9.444   0.368  -1.157  1.00  0.00     0.303 C 
ATOM      3  O   UNL     1       9.465  -0.414  -0.169  1.00  0.00    -0.252 OA
BRANCH   2   4
ATOM      4  O   UNL     1      10.480   1.303  -1.298  1.00  0.00    -0.481 OA
ATOM      5  H   UNL     1      11.018   1.303  -2.154  1.00  0.00     0.296 HD
ENDBRANCH   2   4
ENDBRANCH   1   2
BRANCH   1   6
ATOM      6  C   UNL     1       7.178  -0.551  -1.589  1.00  0.00     0.047 C 
BRANCH   6   7
ATOM      7  C   UNL     1       6.378   0.231  -0.610  1.00  0.00    -0.047 A 
ATOM      8  C   UNL     1       5.826   1.454  -0.964  1.00  0.00     0.004 A 
ATOM      9  C   UNL     1       6.151  -0.198   0.684  1.00  0.00     0.004 A 
ATOM     10  C   UNL     1       5.090   2.207  -0.078  1.00  0.00     0.000 A 
ATOM     11  C   UNL     1       5.413   0.557   1.571  1.00  0.00     0.000 A 
ATOM     12  C   UNL     1       4.869   1.769   1.212  1.00  0.00     0.000 A 
ENDBRANCH   6   7
ENDBRANCH   1   6
TORSDOF 4
ENDMDL
MODEL 5
REMARK VINA RESULT:      -6.6      1.878      2.863
REMARK SMILES O=C(O)CCc1ccccc1
REMARK SMILES IDX 4 1 2 2 1 3 3 4 5 6 6 7 7 8 11 9 8 10 10 11 9 12
REMARK H PARENT 3 5
REMARK Flexibility Score: inf
ROOT
ATOM      1  C   UNL     1       8.216  -1.603   0.985  1.00  0.00     0.127 C 
ENDROOT
BRANCH   1   2
ATOM      2  C   UNL     1       8.500  -2.829   0.219  1.00  0.00     0.303 C 
ATOM      3  O   UNL     1       9.113  -3.776   0.783  1.00  0.00    -0.252 OA
BRANCH   2   4
ATOM      4  O   UNL     1       8.109  -2.982  -1.119  1.00  0.00    -0.481 OA
ATOM      5  H   UNL     1       7.973  -2.153  -1.681  1.00  0.00     0.296 HD
ENDBRANCH   2   4
ENDBRANCH   1   2
BRANCH   1   6
ATOM      6  C   UNL     1       6.746  -1.476   1.343  1.00  0.00     0.047 C 
BRANCH   6   7
ATOM      7  C   UNL     1       6.177  -0.209   0.814  1.00  0.00    -0.047 A 
ATOM      8  C   UNL     1       6.417   0.183  -0.495  1.00  0.00     0.004 A 
ATOM      9  C   UNL     1       5.400   0.639   1.581  1.00  0.00     0.004 A 
ATOM     10  C   UNL     1       5.913   1.355  -1.011  1.00  0.00     0.000 A 
ATOM     11  C   UNL     1       4.896   1.813   1.063  1.00  0.00     0.000 A 
ATOM     12  C   UNL     1       5.140   2.196  -0.236  1.00  0.00     0.000 A 
ENDBRANCH   6   7
ENDBRANCH   1   6
TORSDOF 4
ENDMDL
