@<TRIPOS>MOLECULE
/home/cewinharhar/GITHUB/reincatalyze/data/processed/docking_pred/2023-Apr-25-2248_maxeplen10_maxtrainstep1000_exh16_gamma099_lrac3e-4_lrcr1e-3/e72dfb9ce69b60d9dd63e32278a4acfac8a78322_ligand_2.pdbqt
 12 12 0 0 0
SMALL
GASTEIGER

@<TRIPOS>ATOM
      1  C          8.3370    0.2710   -2.1240 C.3     1  UNL1        0.1270
      2  C          9.4440    0.3680   -1.1570 C.2     1  UNL1        0.3030
      3  O          9.4650   -0.4140   -0.1690 O.2     1  UNL1       -0.2520
      4  O         10.4800    1.3030   -1.2980 O.3     1  UNL1       -0.4810
      5  H         11.0180    1.3030   -2.1540 H       1  UNL1        0.2960
      6  C          7.1780   -0.5510   -1.5890 C.3     1  UNL1        0.0470
      7  C          6.3780    0.2310   -0.6100 C.2     1  UNL1       -0.0470
      8  C          5.8260    1.4540   -0.9640 C.2     1  UNL1        0.0040
      9  C          6.1510   -0.1980    0.6840 C.2     1  UNL1        0.0040
     10  C          5.0900    2.2070   -0.0780 C.2     1  UNL1        0.0000
     11  C          5.4130    0.5570    1.5710 C.2     1  UNL1        0.0000
     12  C          4.8690    1.7690    1.2120 C.2     1  UNL1        0.0000
@<TRIPOS>BOND
     1     5     4    1
     2     1     6    1
     3     1     2    1
     4     6     7    1
     5     4     2    1
     6     2     3    2
     7     8     7    2
     8     8    10    1
     9     7     9    1
    10    10    12    2
    11     9    11    2
    12    12    11    1
