@<TRIPOS>MOLECULE
/home/cewinharhar/GITHUB/reincatalyze/data/processed/docking_pred/2023-Apr-25-2248_maxeplen10_maxtrainstep1000_exh16_gamma099_lrac3e-4_lrcr1e-3/e72dfb9ce69b60d9dd63e32278a4acfac8a78322_ligand_2.pdbqt
 12 12 0 0 0
SMALL
GASTEIGER

@<TRIPOS>ATOM
      1  C          8.3920   -0.7160   -2.0400 C.3     1  UNL1        0.1270
      2  C          8.3900   -1.9330   -2.8710 C.2     1  UNL1        0.3030
      3  O          7.2870   -2.4140   -3.2500 O.2     1  UNL1       -0.2520
      4  O          9.5740   -2.5760   -3.2590 O.3     1  UNL1       -0.4810
      5  H          9.8470   -2.5430   -4.2320 H       1  UNL1        0.2960
      6  C          7.0630    0.0160   -2.0910 C.3     1  UNL1        0.0470
      7  C          6.4760    0.1480   -0.7320 C.2     1  UNL1       -0.0470
      8  C          6.5980   -0.8770    0.1950 C.2     1  UNL1        0.0040
      9  C          5.7790    1.2710   -0.3240 C.2     1  UNL1        0.0040
     10  C          6.0570   -0.7880    1.4570 C.2     1  UNL1        0.0000
     11  C          5.2380    1.3580    0.9410 C.2     1  UNL1        0.0000
     12  C          5.3630    0.3370    1.8550 C.2     1  UNL1        0.0000
@<TRIPOS>BOND
     1     5     4    1
     2     4     2    1
     3     3     2    2
     4     2     1    1
     5     6     1    1
     6     6     7    1
     7     7     9    2
     8     7     8    1
     9     9    11    1
    10     8    10    2
    11    11    12    2
    12    10    12    1
