@<TRIPOS>MOLECULE
/home/cewinharhar/GITHUB/reincatalyze/data/processed/docking_pred/2023-Apr-25-2248_maxeplen10_maxtrainstep1000_exh16_gamma099_lrac3e-4_lrcr1e-3/e72dfb9ce69b60d9dd63e32278a4acfac8a78322_ligand_2.pdbqt
 12 12 0 0 0
SMALL
GASTEIGER

@<TRIPOS>ATOM
      1  C          8.3800   -0.6320   -2.1530 C.3     1  UNL1        0.1270
      2  C          8.3910   -1.9030   -2.8990 C.2     1  UNL1        0.3030
      3  O          7.2940   -2.4190   -3.2470 O.2     1  UNL1       -0.2520
      4  O          9.5820   -2.5610   -3.2390 O.3     1  UNL1       -0.4810
      5  H         10.4590   -2.0760   -3.1000 H       1  UNL1        0.2960
      6  C          7.0040    0.0090   -2.1330 C.3     1  UNL1        0.0470
      7  C          6.4660    0.0720   -0.7490 C.2     1  UNL1       -0.0470
      8  C          5.8050    1.2060   -0.2980 C.2     1  UNL1        0.0040
      9  C          6.5990   -0.9660    0.1540 C.2     1  UNL1        0.0040
     10  C          5.3050    1.3000    0.9810 C.2     1  UNL1        0.0000
     11  C          6.0980   -0.8710    1.4350 C.2     1  UNL1        0.0000
     12  C          5.4440    0.2580    1.8750 C.2     1  UNL1        0.0000
@<TRIPOS>BOND
     1     3     2    2
     2     4     5    1
     3     4     2    1
     4     2     1    1
     5     1     6    1
     6     6     7    1
     7     7     8    2
     8     7     9    1
     9     8    10    1
    10     9    11    2
    11    10    12    2
    12    11    12    1
