@<TRIPOS>MOLECULE
/home/cewinharhar/GITHUB/reincatalyze/data/processed/docking_pred/2023-Apr-25-2248_maxeplen10_maxtrainstep1000_exh16_gamma099_lrac3e-4_lrcr1e-3/e72dfb9ce69b60d9dd63e32278a4acfac8a78322_ligand_2.pdbqt
 12 12 0 0 0
SMALL
GASTEIGER

@<TRIPOS>ATOM
      1  C          8.2160   -1.6030    0.9850 C.3     1  UNL1        0.1270
      2  C          8.5000   -2.8290    0.2190 C.2     1  UNL1        0.3030
      3  O          9.1130   -3.7760    0.7830 O.2     1  UNL1       -0.2520
      4  O          8.1090   -2.9820   -1.1190 O.3     1  UNL1       -0.4810
      5  H          7.9730   -2.1530   -1.6810 H       1  UNL1        0.2960
      6  C          6.7460   -1.4760    1.3430 C.3     1  UNL1        0.0470
      7  C          6.1770   -0.2090    0.8140 C.2     1  UNL1       -0.0470
      8  C          6.4170    0.1830   -0.4950 C.2     1  UNL1        0.0040
      9  C          5.4000    0.6390    1.5810 C.2     1  UNL1        0.0040
     10  C          5.9130    1.3550   -1.0110 C.2     1  UNL1        0.0000
     11  C          4.8960    1.8130    1.0630 C.2     1  UNL1        0.0000
     12  C          5.1400    2.1960   -0.2360 C.2     1  UNL1        0.0000
@<TRIPOS>BOND
     1     5     4    1
     2     4     2    1
     3    10     8    1
     4    10    12    2
     5     8     7    2
     6    12    11    1
     7     2     3    2
     8     2     1    1
     9     7     6    1
    10     7     9    1
    11     1     6    1
    12    11     9    2
