MODEL 1
REMARK VINA RESULT:      -7.3      0.000      0.000
REMARK SMILES O=C(O)CCc1ccccc1
REMARK SMILES IDX 4 1 2 2 1 3 3 4 5 6 6 7 7 8 11 9 8 10 10 11 9 12
REMARK H PARENT 3 5
REMARK Flexibility Score: inf
ROOT
ATOM      1  C   UNL     1       8.392  -0.674  -2.105  1.00  0.00     0.127 C 
ENDROOT
BRANCH   1   2
ATOM      2  C   UNL     1       8.397  -1.924  -2.886  1.00  0.00     0.303 C 
ATOM      3  O   UNL     1       7.298  -2.423  -3.250  1.00  0.00    -0.252 OA
BRANCH   2   4
ATOM      4  O   UNL     1       9.585  -2.579  -3.241  1.00  0.00    -0.481 OA
ATOM      5  H   UNL     1      10.294  -2.712  -2.532  1.00  0.00     0.296 HD
ENDBRANCH   2   4
ENDBRANCH   1   2
BRANCH   1   6
ATOM      6  C   UNL     1       7.037   0.012  -2.129  1.00  0.00     0.047 C 
BRANCH   6   7
ATOM      7  C   UNL     1       6.475   0.129  -0.758  1.00  0.00    -0.047 A 
ATOM      8  C   UNL     1       6.609  -0.909   0.153  1.00  0.00     0.004 A 
ATOM      9  C   UNL     1       5.793   1.250  -0.322  1.00  0.00     0.004 A 
ATOM     10  C   UNL     1       6.092  -0.836   1.426  1.00  0.00     0.000 A 
ATOM     11  C   UNL     1       5.275   1.322   0.953  1.00  0.00     0.000 A 
ATOM     12  C   UNL     1       5.411   0.287   1.851  1.00  0.00     0.000 A 
ENDBRANCH   6   7
ENDBRANCH   1   6
TORSDOF 4
ENDMDL
MODEL 2
REMARK VINA RESULT:      -7.2      0.045      1.421
REMARK SMILES O=C(O)CCc1ccccc1
REMARK SMILES IDX 4 1 2 2 1 3 3 4 5 6 6 7 7 8 11 9 8 10 10 11 9 12
REMARK H PARENT 3 5
REMARK Flexibility Score: inf
ROOT
ATOM      1  C   UNL     1       8.430  -0.679  -2.112  1.00  0.00     0.127 C 
ENDROOT
BRANCH   1   2
ATOM      2  C   UNL     1       8.418  -1.936  -2.880  1.00  0.00     0.303 C 
ATOM      3  O   UNL     1       7.311  -2.432  -3.226  1.00  0.00    -0.252 OA
BRANCH   2   4
ATOM      4  O   UNL     1       9.597  -2.602  -3.244  1.00  0.00    -0.481 OA
ATOM      5  H   UNL     1       9.898  -3.391  -2.688  1.00  0.00     0.296 HD
ENDBRANCH   2   4
ENDBRANCH   1   2
BRANCH   1   6
ATOM      6  C   UNL     1       7.076   0.009  -2.115  1.00  0.00     0.047 C 
BRANCH   6   7
ATOM      7  C   UNL     1       6.507   0.070  -0.743  1.00  0.00    -0.047 A 
ATOM      8  C   UNL     1       5.819   1.195  -0.312  1.00  0.00     0.004 A 
ATOM      9  C   UNL     1       6.634  -0.964   0.166  1.00  0.00     0.004 A 
ATOM     10  C   UNL     1       5.289   1.286   0.955  1.00  0.00     0.000 A 
ATOM     11  C   UNL     1       6.103  -0.871   1.435  1.00  0.00     0.000 A 
ATOM     12  C   UNL     1       5.423   0.249   1.856  1.00  0.00     0.000 A 
ENDBRANCH   6   7
ENDBRANCH   1   6
TORSDOF 4
ENDMDL
MODEL 3
REMARK VINA RESULT:      -6.8      3.332      5.165
REMARK SMILES O=C(O)CCc1ccccc1
REMARK SMILES IDX 4 1 2 2 1 3 3 4 5 6 6 7 7 8 11 9 8 10 10 11 9 12
REMARK H PARENT 3 5
REMARK Flexibility Score: inf
ROOT
ATOM      1  C   UNL     1       5.013   1.818   0.757  1.00  0.00     0.127 C 
ENDROOT
BRANCH   1   2
ATOM      2  C   UNL     1       4.468   1.124   1.938  1.00  0.00     0.303 C 
ATOM      3  O   UNL     1       5.144   0.205   2.474  1.00  0.00    -0.252 OA
BRANCH   2   4
ATOM      4  O   UNL     1       3.220   1.452   2.488  1.00  0.00    -0.481 OA
ATOM      5  H   UNL     1       2.726   2.254   2.121  1.00  0.00     0.296 HD
ENDBRANCH   2   4
ENDBRANCH   1   2
BRANCH   1   6
ATOM      6  C   UNL     1       6.527   1.916   0.797  1.00  0.00     0.047 C 
BRANCH   6   7
ATOM      7  C   UNL     1       7.141   1.135  -0.308  1.00  0.00    -0.047 A 
ATOM      8  C   UNL     1       6.376   0.260  -1.066  1.00  0.00     0.004 A 
ATOM      9  C   UNL     1       8.482   1.224  -0.633  1.00  0.00     0.004 A 
ATOM     10  C   UNL     1       6.916  -0.485  -2.090  1.00  0.00     0.000 A 
ATOM     11  C   UNL     1       9.022   0.478  -1.659  1.00  0.00     0.000 A 
ATOM     12  C   UNL     1       8.256  -0.389  -2.405  1.00  0.00     0.000 A 
ENDBRANCH   6   7
ENDBRANCH   1   6
TORSDOF 4
ENDMDL
MODEL 4
REMARK VINA RESULT:      -6.6      3.836      4.963
REMARK SMILES O=C(O)CCc1ccccc1
REMARK SMILES IDX 4 1 2 2 1 3 3 4 5 6 6 7 7 8 11 9 8 10 10 11 9 12
REMARK H PARENT 3 5
REMARK Flexibility Score: inf
ROOT
ATOM      1  C   UNL     1       5.601   2.885   0.039  1.00  0.00     0.127 C 
ENDROOT
BRANCH   1   2
ATOM      2  C   UNL     1       6.323   3.884   0.846  1.00  0.00     0.303 C 
ATOM      3  O   UNL     1       7.004   4.768   0.260  1.00  0.00    -0.252 OA
BRANCH   2   4
ATOM      4  O   UNL     1       6.277   3.888   2.248  1.00  0.00    -0.481 OA
ATOM      5  H   UNL     1       5.686   4.565   2.711  1.00  0.00     0.296 HD
ENDBRANCH   2   4
ENDBRANCH   1   2
BRANCH   1   6
ATOM      6  C   UNL     1       4.937   1.824   0.899  1.00  0.00     0.047 C 
BRANCH   6   7
ATOM      7  C   UNL     1       5.759   0.587   0.948  1.00  0.00    -0.047 A 
ATOM      8  C   UNL     1       5.725  -0.242   2.061  1.00  0.00     0.004 A 
ATOM      9  C   UNL     1       6.595   0.202  -0.084  1.00  0.00     0.004 A 
ATOM     10  C   UNL     1       6.482  -1.388   2.141  1.00  0.00     0.000 A 
ATOM     11  C   UNL     1       7.353  -0.946  -0.002  1.00  0.00     0.000 A 
ATOM     12  C   UNL     1       7.314  -1.763   1.106  1.00  0.00     0.000 A 
ENDBRANCH   6   7
ENDBRANCH   1   6
TORSDOF 4
ENDMDL
MODEL 5
REMARK VINA RESULT:      -6.6      2.073      2.613
REMARK SMILES O=C(O)CCc1ccccc1
REMARK SMILES IDX 4 1 2 2 1 3 3 4 5 6 6 7 7 8 11 9 8 10 10 11 9 12
REMARK H PARENT 3 5
REMARK Flexibility Score: inf
ROOT
ATOM      1  C   UNL     1       7.984  -2.280   0.710  1.00  0.00     0.127 C 
ENDROOT
BRANCH   1   2
ATOM      2  C   UNL     1       8.794  -3.439   0.293  1.00  0.00     0.303 C 
ATOM      3  O   UNL     1       9.666  -3.893   1.082  1.00  0.00    -0.252 OA
BRANCH   2   4
ATOM      4  O   UNL     1       8.628  -4.057  -0.955  1.00  0.00    -0.481 OA
ATOM      5  H   UNL     1       9.411  -4.072  -1.595  1.00  0.00     0.296 HD
ENDBRANCH   2   4
ENDBRANCH   1   2
BRANCH   1   6
ATOM      6  C   UNL     1       7.448  -1.498  -0.475  1.00  0.00     0.047 C 
BRANCH   6   7
ATOM      7  C   UNL     1       6.600  -0.363  -0.025  1.00  0.00    -0.047 A 
ATOM      8  C   UNL     1       6.059  -0.348   1.253  1.00  0.00     0.004 A 
ATOM      9  C   UNL     1       6.300   0.715  -0.837  1.00  0.00     0.004 A 
ATOM     10  C   UNL     1       5.262   0.683   1.696  1.00  0.00     0.000 A 
ATOM     11  C   UNL     1       5.502   1.747  -0.392  1.00  0.00     0.000 A 
ATOM     12  C   UNL     1       4.968   1.754   0.877  1.00  0.00     0.000 A 
ENDBRANCH   6   7
ENDBRANCH   1   6
TORSDOF 4
ENDMDL
