@<TRIPOS>MOLECULE
/home/cewinharhar/GITHUB/reincatalyze/data/processed/docking_pred/2023-Apr-25-2248_maxeplen10_maxtrainstep1000_exh16_gamma099_lrac3e-4_lrcr1e-3/e8fc6854485d68a8d0bf78bf523603f1a9cbeca9_ligand_2.pdbqt
 12 12 0 0 0
SMALL
GASTEIGER

@<TRIPOS>ATOM
      1  C          7.9840   -2.2800    0.7100 C.3     1  UNL1        0.1270
      2  C          8.7940   -3.4390    0.2930 C.2     1  UNL1        0.3030
      3  O          9.6660   -3.8930    1.0820 O.2     1  UNL1       -0.2520
      4  O          8.6280   -4.0570   -0.9550 O.3     1  UNL1       -0.4810
      5  H          9.4110   -4.0720   -1.5950 H       1  UNL1        0.2960
      6  C          7.4480   -1.4980   -0.4750 C.3     1  UNL1        0.0470
      7  C          6.6000   -0.3630   -0.0250 C.2     1  UNL1       -0.0470
      8  C          6.0590   -0.3480    1.2530 C.2     1  UNL1        0.0040
      9  C          6.3000    0.7150   -0.8370 C.2     1  UNL1        0.0040
     10  C          5.2620    0.6830    1.6960 C.2     1  UNL1        0.0000
     11  C          5.5020    1.7470   -0.3920 C.2     1  UNL1        0.0000
     12  C          4.9680    1.7540    0.8770 C.2     1  UNL1        0.0000
@<TRIPOS>BOND
     1     5     4    1
     2     4     2    1
     3     9    11    1
     4     9     7    2
     5     6     7    1
     6     6     1    1
     7    11    12    2
     8     7     8    1
     9     2     1    1
    10     2     3    2
    11    12    10    1
    12     8    10    2
