@<TRIPOS>MOLECULE
/home/cewinharhar/GITHUB/reincatalyze/data/processed/docking_pred/2023-Apr-25-2248_maxeplen10_maxtrainstep1000_exh16_gamma099_lrac3e-4_lrcr1e-3/e8fc6854485d68a8d0bf78bf523603f1a9cbeca9_ligand_2.pdbqt
 12 12 0 0 0
SMALL
GASTEIGER

@<TRIPOS>ATOM
      1  C          8.4300   -0.6790   -2.1120 C.3     1  UNL1        0.1270
      2  C          8.4180   -1.9360   -2.8800 C.2     1  UNL1        0.3030
      3  O          7.3110   -2.4320   -3.2260 O.2     1  UNL1       -0.2520
      4  O          9.5970   -2.6020   -3.2440 O.3     1  UNL1       -0.4810
      5  H          9.8980   -3.3910   -2.6880 H       1  UNL1        0.2960
      6  C          7.0760    0.0090   -2.1150 C.3     1  UNL1        0.0470
      7  C          6.5070    0.0700   -0.7430 C.2     1  UNL1       -0.0470
      8  C          5.8190    1.1950   -0.3120 C.2     1  UNL1        0.0040
      9  C          6.6340   -0.9640    0.1660 C.2     1  UNL1        0.0040
     10  C          5.2890    1.2860    0.9550 C.2     1  UNL1        0.0000
     11  C          6.1030   -0.8710    1.4350 C.2     1  UNL1        0.0000
     12  C          5.4230    0.2490    1.8560 C.2     1  UNL1        0.0000
@<TRIPOS>BOND
     1     4     2    1
     2     4     5    1
     3     3     2    2
     4     2     1    1
     5     6     1    1
     6     6     7    1
     7     7     8    2
     8     7     9    1
     9     8    10    1
    10     9    11    2
    11    10    12    2
    12    11    12    1
