@<TRIPOS>MOLECULE
/home/cewinharhar/GITHUB/reincatalyze/data/processed/docking_pred/2023-Apr-25-2248_maxeplen10_maxtrainstep1000_exh16_gamma099_lrac3e-4_lrcr1e-3/e8fc6854485d68a8d0bf78bf523603f1a9cbeca9_ligand_2.pdbqt
 12 12 0 0 0
SMALL
GASTEIGER

@<TRIPOS>ATOM
      1  C          8.3920   -0.6740   -2.1050 C.3     1  UNL1        0.1270
      2  C          8.3970   -1.9240   -2.8860 C.2     1  UNL1        0.3030
      3  O          7.2980   -2.4230   -3.2500 O.2     1  UNL1       -0.2520
      4  O          9.5850   -2.5790   -3.2410 O.3     1  UNL1       -0.4810
      5  H         10.2940   -2.7120   -2.5320 H       1  UNL1        0.2960
      6  C          7.0370    0.0120   -2.1290 C.3     1  UNL1        0.0470
      7  C          6.4750    0.1290   -0.7580 C.2     1  UNL1       -0.0470
      8  C          6.6090   -0.9090    0.1530 C.2     1  UNL1        0.0040
      9  C          5.7930    1.2500   -0.3220 C.2     1  UNL1        0.0040
     10  C          6.0920   -0.8360    1.4260 C.2     1  UNL1        0.0000
     11  C          5.2750    1.3220    0.9530 C.2     1  UNL1        0.0000
     12  C          5.4110    0.2870    1.8510 C.2     1  UNL1        0.0000
@<TRIPOS>BOND
     1     3     2    2
     2     4     2    1
     3     4     5    1
     4     2     1    1
     5     6     1    1
     6     6     7    1
     7     7     9    2
     8     7     8    1
     9     9    11    1
    10     8    10    2
    11    11    12    2
    12    10    12    1
