@<TRIPOS>MOLECULE
/home/cewinharhar/GITHUB/reincatalyze/data/processed/docking_pred/2023-Apr-25-2248_maxeplen10_maxtrainstep1000_exh16_gamma099_lrac3e-4_lrcr1e-3/e8fc6854485d68a8d0bf78bf523603f1a9cbeca9_ligand_2.pdbqt
 12 12 0 0 0
SMALL
GASTEIGER

@<TRIPOS>ATOM
      1  C          5.6010    2.8850    0.0390 C.3     1  UNL1        0.1270
      2  C          6.3230    3.8840    0.8460 C.2     1  UNL1        0.3030
      3  O          7.0040    4.7680    0.2600 O.2     1  UNL1       -0.2520
      4  O          6.2770    3.8880    2.2480 O.3     1  UNL1       -0.4810
      5  H          5.6860    4.5650    2.7110 H       1  UNL1        0.2960
      6  C          4.9370    1.8240    0.8990 C.3     1  UNL1        0.0470
      7  C          5.7590    0.5870    0.9480 C.2     1  UNL1       -0.0470
      8  C          5.7250   -0.2420    2.0610 C.2     1  UNL1        0.0040
      9  C          6.5950    0.2020   -0.0840 C.2     1  UNL1        0.0040
     10  C          6.4820   -1.3880    2.1410 C.2     1  UNL1        0.0000
     11  C          7.3530   -0.9460   -0.0020 C.2     1  UNL1        0.0000
     12  C          7.3140   -1.7630    1.1060 C.2     1  UNL1        0.0000
@<TRIPOS>BOND
     1     9    11    1
     2     9     7    2
     3    11    12    2
     4     1     2    1
     5     1     6    1
     6     3     2    2
     7     2     4    1
     8     6     7    1
     9     7     8    1
    10    12    10    1
    11     8    10    2
    12     4     5    1
