@<TRIPOS>MOLECULE
/home/cewinharhar/GITHUB/reincatalyze/data/processed/docking_pred/2023-Apr-25-2248_maxeplen10_maxtrainstep1000_exh16_gamma099_lrac3e-4_lrcr1e-3/e9ca5ba4bc0452251e134010a3e53239cf47eed8_ligand_2.pdbqt
 12 12 0 0 0
SMALL
GASTEIGER

@<TRIPOS>ATOM
      1  C          8.2200   -1.5580    1.0000 C.3     1  UNL1        0.1270
      2  C          8.5010   -2.7950    0.2500 C.2     1  UNL1        0.3030
      3  O          9.0940   -3.7430    0.8330 O.2     1  UNL1       -0.2520
      4  O          8.1310   -2.9560   -1.0930 O.3     1  UNL1       -0.4810
      5  H          8.6940   -3.5540   -1.6820 H       1  UNL1        0.2960
      6  C          6.7520   -1.4320    1.3680 C.3     1  UNL1        0.0470
      7  C          6.1740   -0.1730    0.8280 C.2     1  UNL1       -0.0470
      8  C          6.4070    0.2060   -0.4860 C.2     1  UNL1        0.0040
      9  C          5.3960    0.6790    1.5900 C.2     1  UNL1        0.0040
     10  C          5.8950    1.3700   -1.0120 C.2     1  UNL1        0.0000
     11  C          4.8840    1.8450    1.0610 C.2     1  UNL1        0.0000
     12  C          5.1200    2.2150   -0.2430 C.2     1  UNL1        0.0000
@<TRIPOS>BOND
     1     5     4    1
     2     4     2    1
     3    10     8    1
     4    10    12    2
     5     8     7    2
     6    12    11    1
     7     2     3    2
     8     2     1    1
     9     7     6    1
    10     7     9    1
    11     1     6    1
    12    11     9    2
