@<TRIPOS>MOLECULE
/home/cewinharhar/GITHUB/reincatalyze/data/processed/docking_pred/2023-Apr-25-2248_maxeplen10_maxtrainstep1000_exh16_gamma099_lrac3e-4_lrcr1e-3/e9ca5ba4bc0452251e134010a3e53239cf47eed8_ligand_2.pdbqt
 12 12 0 0 0
SMALL
GASTEIGER

@<TRIPOS>ATOM
      1  C          8.3800   -0.6230   -2.1620 C.3     1  UNL1        0.1270
      2  C          8.3900   -1.8990   -2.8990 C.2     1  UNL1        0.3030
      3  O          7.2920   -2.4190   -3.2390 O.2     1  UNL1       -0.2520
      4  O          9.5810   -2.5580   -3.2370 O.3     1  UNL1       -0.4810
      5  H          9.8900   -2.5350   -4.2000 H       1  UNL1        0.2960
      6  C          7.0060    0.0240   -2.1550 C.3     1  UNL1        0.0470
      7  C          6.4670    0.1130   -0.7730 C.2     1  UNL1       -0.0470
      8  C          6.6110   -0.9460    0.1130 C.2     1  UNL1        0.0040
      9  C          5.7960    1.2270   -0.3010 C.2     1  UNL1        0.0040
     10  C          6.1140   -0.8990    1.3950 C.2     1  UNL1        0.0000
     11  C          5.2990    1.2720    0.9840 C.2     1  UNL1        0.0000
     12  C          5.4450    0.2170    1.8560 C.2     1  UNL1        0.0000
@<TRIPOS>BOND
     1     5     4    1
     2     3     2    2
     3     4     2    1
     4     2     1    1
     5     1     6    1
     6     6     7    1
     7     7     9    2
     8     7     8    1
     9     9    11    1
    10     8    10    2
    11    11    12    2
    12    10    12    1
