@<TRIPOS>MOLECULE
/home/cewinharhar/GITHUB/reincatalyze/data/processed/docking_pred/2023-Apr-25-2248_maxeplen10_maxtrainstep1000_exh16_gamma099_lrac3e-4_lrcr1e-3/e9ca5ba4bc0452251e134010a3e53239cf47eed8_ligand_2.pdbqt
 12 12 0 0 0
SMALL
GASTEIGER

@<TRIPOS>ATOM
      1  C          8.2810   -1.0220   -1.7620 C.3     1  UNL1        0.1270
      2  C          8.3870   -2.0500   -2.8120 C.2     1  UNL1        0.3030
      3  O          9.5220   -2.5230   -3.0930 O.2     1  UNL1       -0.2520
      4  O          7.2680   -2.5250   -3.5100 O.3     1  UNL1       -0.4810
      5  H          6.6940   -3.2360   -3.0770 H       1  UNL1        0.2960
      6  C          7.4540   -1.4920   -0.5790 C.3     1  UNL1        0.0470
      7  C          6.5990   -0.3950   -0.0570 C.2     1  UNL1       -0.0470
      8  C          6.2870    0.6990   -0.8520 C.2     1  UNL1        0.0040
      9  C          6.0820   -0.3940    1.2260 C.2     1  UNL1        0.0040
     10  C          5.5060    1.7350   -0.3950 C.2     1  UNL1        0.0000
     11  C          5.3000    0.6450    1.6820 C.2     1  UNL1        0.0000
     12  C          4.9970    1.7270    0.8880 C.2     1  UNL1        0.0000
@<TRIPOS>BOND
     1     4     5    1
     2     4     2    1
     3     3     2    2
     4     2     1    1
     5     1     6    1
     6     8    10    1
     7     8     7    2
     8     6     7    1
     9    10    12    2
    10     7     9    1
    11    12    11    1
    12     9    11    2
