@<TRIPOS>MOLECULE
/home/cewinharhar/GITHUB/reincatalyze/data/processed/docking_pred/2023-Apr-25-2248_maxeplen10_maxtrainstep1000_exh16_gamma099_lrac3e-4_lrcr1e-3/e9ca5ba4bc0452251e134010a3e53239cf47eed8_ligand_2.pdbqt
 12 12 0 0 0
SMALL
GASTEIGER

@<TRIPOS>ATOM
      1  C          5.0140    1.7900    0.7120 C.3     1  UNL1        0.1270
      2  C          4.4860    1.1210    1.9140 C.2     1  UNL1        0.3030
      3  O          5.1750    0.2190    2.4660 O.2     1  UNL1       -0.2520
      4  O          3.2420    1.4540    2.4700 O.3     1  UNL1       -0.4810
      5  H          3.0800    1.2530    3.4480 H       1  UNL1        0.2960
      6  C          6.5260    1.9210    0.7460 C.3     1  UNL1        0.0470
      7  C          7.1550    1.1280   -0.3420 C.2     1  UNL1       -0.0470
      8  C          6.3960    0.2560   -1.1110 C.2     1  UNL1        0.0040
      9  C          8.5030    1.2010   -0.6400 C.2     1  UNL1        0.0040
     10  C          6.9500   -0.5000   -2.1180 C.2     1  UNL1        0.0000
     11  C          9.0560    0.4430   -1.6490 C.2     1  UNL1        0.0000
     12  C          8.2970   -0.4200   -2.4060 C.2     1  UNL1        0.0000
@<TRIPOS>BOND
     1    12    10    2
     2    12    11    1
     3    10     8    1
     4    11     9    2
     5     8     7    2
     6     9     7    1
     7     7     6    1
     8     1     6    1
     9     1     2    1
    10     2     3    2
    11     2     4    1
    12     4     5    1
