MODEL 1
REMARK VINA RESULT:      -7.3      0.000      0.000
REMARK SMILES O=C(O)CCc1ccccc1
REMARK SMILES IDX 4 1 2 2 1 3 3 4 5 6 6 7 7 8 11 9 8 10 10 11 9 12
REMARK H PARENT 3 5
REMARK Flexibility Score: inf
ROOT
ATOM      1  C   UNL     1       8.409  -0.607  -2.192  1.00  0.00     0.127 C 
ENDROOT
BRANCH   1   2
ATOM      2  C   UNL     1       8.435  -1.887  -2.921  1.00  0.00     0.303 C 
ATOM      3  O   UNL     1       9.535  -2.485  -3.070  1.00  0.00    -0.252 OA
BRANCH   2   4
ATOM      4  O   UNL     1       7.275  -2.467  -3.455  1.00  0.00    -0.481 OA
ATOM      5  H   UNL     1       6.398  -1.974  -3.356  1.00  0.00     0.296 HD
ENDBRANCH   2   4
ENDBRANCH   1   2
BRANCH   1   6
ATOM      6  C   UNL     1       7.017  -0.003  -2.140  1.00  0.00     0.047 C 
BRANCH   6   7
ATOM      7  C   UNL     1       6.500   0.027  -0.747  1.00  0.00    -0.047 A 
ATOM      8  C   UNL     1       5.865   1.157  -0.253  1.00  0.00     0.004 A 
ATOM      9  C   UNL     1       6.628  -1.041   0.122  1.00  0.00     0.004 A 
ATOM     10  C   UNL     1       5.385   1.221   1.036  1.00  0.00     0.000 A 
ATOM     11  C   UNL     1       6.147  -0.975   1.412  1.00  0.00     0.000 A 
ATOM     12  C   UNL     1       5.519   0.150   1.896  1.00  0.00     0.000 A 
ENDBRANCH   6   7
ENDBRANCH   1   6
TORSDOF 4
ENDMDL
MODEL 2
REMARK VINA RESULT:      -7.3      0.118      1.724
REMARK SMILES O=C(O)CCc1ccccc1
REMARK SMILES IDX 4 1 2 2 1 3 3 4 5 6 6 7 7 8 11 9 8 10 10 11 9 12
REMARK H PARENT 3 5
REMARK Flexibility Score: inf
ROOT
ATOM      1  C   UNL     1       8.380  -0.623  -2.162  1.00  0.00     0.127 C 
ENDROOT
BRANCH   1   2
ATOM      2  C   UNL     1       8.390  -1.899  -2.899  1.00  0.00     0.303 C 
ATOM      3  O   UNL     1       7.292  -2.419  -3.239  1.00  0.00    -0.252 OA
BRANCH   2   4
ATOM      4  O   UNL     1       9.581  -2.558  -3.237  1.00  0.00    -0.481 OA
ATOM      5  H   UNL     1       9.890  -2.535  -4.200  1.00  0.00     0.296 HD
ENDBRANCH   2   4
ENDBRANCH   1   2
BRANCH   1   6
ATOM      6  C   UNL     1       7.006   0.024  -2.155  1.00  0.00     0.047 C 
BRANCH   6   7
ATOM      7  C   UNL     1       6.467   0.113  -0.773  1.00  0.00    -0.047 A 
ATOM      8  C   UNL     1       6.611  -0.946   0.113  1.00  0.00     0.004 A 
ATOM      9  C   UNL     1       5.796   1.227  -0.301  1.00  0.00     0.004 A 
ATOM     10  C   UNL     1       6.114  -0.899   1.395  1.00  0.00     0.000 A 
ATOM     11  C   UNL     1       5.299   1.272   0.984  1.00  0.00     0.000 A 
ATOM     12  C   UNL     1       5.445   0.217   1.856  1.00  0.00     0.000 A 
ENDBRANCH   6   7
ENDBRANCH   1   6
TORSDOF 4
ENDMDL
MODEL 3
REMARK VINA RESULT:      -7.2      0.719      1.284
REMARK SMILES O=C(O)CCc1ccccc1
REMARK SMILES IDX 4 1 2 2 1 3 3 4 5 6 6 7 7 8 11 9 8 10 10 11 9 12
REMARK H PARENT 3 5
REMARK Flexibility Score: inf
ROOT
ATOM      1  C   UNL     1       8.281  -1.022  -1.762  1.00  0.00     0.127 C 
ENDROOT
BRANCH   1   2
ATOM      2  C   UNL     1       8.387  -2.050  -2.812  1.00  0.00     0.303 C 
ATOM      3  O   UNL     1       9.522  -2.523  -3.093  1.00  0.00    -0.252 OA
BRANCH   2   4
ATOM      4  O   UNL     1       7.268  -2.525  -3.510  1.00  0.00    -0.481 OA
ATOM      5  H   UNL     1       6.694  -3.236  -3.077  1.00  0.00     0.296 HD
ENDBRANCH   2   4
ENDBRANCH   1   2
BRANCH   1   6
ATOM      6  C   UNL     1       7.454  -1.492  -0.579  1.00  0.00     0.047 C 
BRANCH   6   7
ATOM      7  C   UNL     1       6.599  -0.395  -0.057  1.00  0.00    -0.047 A 
ATOM      8  C   UNL     1       6.287   0.699  -0.852  1.00  0.00     0.004 A 
ATOM      9  C   UNL     1       6.082  -0.394   1.226  1.00  0.00     0.004 A 
ATOM     10  C   UNL     1       5.506   1.735  -0.395  1.00  0.00     0.000 A 
ATOM     11  C   UNL     1       5.300   0.645   1.682  1.00  0.00     0.000 A 
ATOM     12  C   UNL     1       4.997   1.727   0.888  1.00  0.00     0.000 A 
ENDBRANCH   6   7
ENDBRANCH   1   6
TORSDOF 4
ENDMDL
MODEL 4
REMARK VINA RESULT:      -6.8      3.396      5.083
REMARK SMILES O=C(O)CCc1ccccc1
REMARK SMILES IDX 4 1 2 2 1 3 3 4 5 6 6 7 7 8 11 9 8 10 10 11 9 12
REMARK H PARENT 3 5
REMARK Flexibility Score: inf
ROOT
ATOM      1  C   UNL     1       5.014   1.790   0.712  1.00  0.00     0.127 C 
ENDROOT
BRANCH   1   2
ATOM      2  C   UNL     1       4.486   1.121   1.914  1.00  0.00     0.303 C 
ATOM      3  O   UNL     1       5.175   0.219   2.466  1.00  0.00    -0.252 OA
BRANCH   2   4
ATOM      4  O   UNL     1       3.242   1.454   2.470  1.00  0.00    -0.481 OA
ATOM      5  H   UNL     1       3.080   1.253   3.448  1.00  0.00     0.296 HD
ENDBRANCH   2   4
ENDBRANCH   1   2
BRANCH   1   6
ATOM      6  C   UNL     1       6.526   1.921   0.746  1.00  0.00     0.047 C 
BRANCH   6   7
ATOM      7  C   UNL     1       7.155   1.128  -0.342  1.00  0.00    -0.047 A 
ATOM      8  C   UNL     1       6.396   0.256  -1.111  1.00  0.00     0.004 A 
ATOM      9  C   UNL     1       8.503   1.201  -0.640  1.00  0.00     0.004 A 
ATOM     10  C   UNL     1       6.950  -0.500  -2.118  1.00  0.00     0.000 A 
ATOM     11  C   UNL     1       9.056   0.443  -1.649  1.00  0.00     0.000 A 
ATOM     12  C   UNL     1       8.297  -0.420  -2.406  1.00  0.00     0.000 A 
ENDBRANCH   6   7
ENDBRANCH   1   6
TORSDOF 4
ENDMDL
MODEL 5
REMARK VINA RESULT:      -6.6      1.865      2.918
REMARK SMILES O=C(O)CCc1ccccc1
REMARK SMILES IDX 4 1 2 2 1 3 3 4 5 6 6 7 7 8 11 9 8 10 10 11 9 12
REMARK H PARENT 3 5
REMARK Flexibility Score: inf
ROOT
ATOM      1  C   UNL     1       8.220  -1.558   1.000  1.00  0.00     0.127 C 
ENDROOT
BRANCH   1   2
ATOM      2  C   UNL     1       8.501  -2.795   0.250  1.00  0.00     0.303 C 
ATOM      3  O   UNL     1       9.094  -3.743   0.833  1.00  0.00    -0.252 OA
BRANCH   2   4
ATOM      4  O   UNL     1       8.131  -2.956  -1.093  1.00  0.00    -0.481 OA
ATOM      5  H   UNL     1       8.694  -3.554  -1.682  1.00  0.00     0.296 HD
ENDBRANCH   2   4
ENDBRANCH   1   2
BRANCH   1   6
ATOM      6  C   UNL     1       6.752  -1.432   1.368  1.00  0.00     0.047 C 
BRANCH   6   7
ATOM      7  C   UNL     1       6.174  -0.173   0.828  1.00  0.00    -0.047 A 
ATOM      8  C   UNL     1       6.407   0.206  -0.486  1.00  0.00     0.004 A 
ATOM      9  C   UNL     1       5.396   0.679   1.590  1.00  0.00     0.004 A 
ATOM     10  C   UNL     1       5.895   1.370  -1.012  1.00  0.00     0.000 A 
ATOM     11  C   UNL     1       4.884   1.845   1.061  1.00  0.00     0.000 A 
ATOM     12  C   UNL     1       5.120   2.215  -0.243  1.00  0.00     0.000 A 
ENDBRANCH   6   7
ENDBRANCH   1   6
TORSDOF 4
ENDMDL
