@<TRIPOS>MOLECULE
/home/cewinharhar/GITHUB/reincatalyze/data/processed/docking_pred/2023-Apr-25-2248_maxeplen10_maxtrainstep1000_exh16_gamma099_lrac3e-4_lrcr1e-3/ea9f39b4277e7ba3f00603e8654b95ed05d2571c_ligand_2.pdbqt
 12 12 0 0 0
SMALL
GASTEIGER

@<TRIPOS>ATOM
      1  C          8.3890   -0.6290   -2.1570 C.3     1  UNL1        0.1270
      2  C          8.3960   -1.8990   -2.9050 C.2     1  UNL1        0.3030
      3  O          7.2970   -2.4200   -3.2380 O.2     1  UNL1       -0.2520
      4  O          9.5860   -2.5500   -3.2630 O.3     1  UNL1       -0.4810
      5  H          9.8840   -2.5160   -4.2280 H       1  UNL1        0.2960
      6  C          7.0180    0.0220   -2.1470 C.3     1  UNL1        0.0470
      7  C          6.4780    0.1050   -0.7640 C.2     1  UNL1       -0.0470
      8  C          6.6200   -0.9580    0.1160 C.2     1  UNL1        0.0040
      9  C          5.8090    1.2180   -0.2880 C.2     1  UNL1        0.0040
     10  C          6.1230   -0.9160    1.3980 C.2     1  UNL1        0.0000
     11  C          5.3120    1.2590    0.9970 C.2     1  UNL1        0.0000
     12  C          5.4550    0.1990    1.8640 C.2     1  UNL1        0.0000
@<TRIPOS>BOND
     1     5     4    1
     2     4     2    1
     3     3     2    2
     4     2     1    1
     5     1     6    1
     6     6     7    1
     7     7     9    2
     8     7     8    1
     9     9    11    1
    10     8    10    2
    11    11    12    2
    12    10    12    1
