@<TRIPOS>MOLECULE
/home/cewinharhar/GITHUB/reincatalyze/data/processed/docking_pred/2023-Apr-25-2248_maxeplen10_maxtrainstep1000_exh16_gamma099_lrac3e-4_lrcr1e-3/ea9f39b4277e7ba3f00603e8654b95ed05d2571c_ligand_2.pdbqt
 12 12 0 0 0
SMALL
GASTEIGER

@<TRIPOS>ATOM
      1  C          4.9920    1.7290    0.7050 C.3     1  UNL1        0.1270
      2  C          4.4660    1.0970    1.9280 C.2     1  UNL1        0.3030
      3  O          5.1500    0.2050    2.4990 O.2     1  UNL1       -0.2520
      4  O          3.2270    1.4540    2.4810 O.3     1  UNL1       -0.4810
      5  H          3.1720    2.2940    3.0400 H       1  UNL1        0.2960
      6  C          6.5040    1.8620    0.7340 C.3     1  UNL1        0.0470
      7  C          7.1300    1.0520   -0.3440 C.2     1  UNL1       -0.0470
      8  C          8.4730    1.2090   -0.6580 C.2     1  UNL1        0.0040
      9  C          6.4260    0.1230   -1.0870 C.2     1  UNL1        0.0040
     10  C          9.0790    0.4820   -1.6570 C.2     1  UNL1        0.0000
     11  C          7.0350   -0.6050   -2.0870 C.2     1  UNL1        0.0000
     12  C          8.3670   -0.4420   -2.3940 C.2     1  UNL1        0.0000
@<TRIPOS>BOND
     1    12    11    2
     2    12    10    1
     3    11     9    1
     4    10     8    2
     5     9     7    2
     6     8     7    1
     7     7     6    1
     8     1     6    1
     9     1     2    1
    10     2     4    1
    11     2     3    2
    12     4     5    1
