@<TRIPOS>MOLECULE
/home/cewinharhar/GITHUB/reincatalyze/data/processed/docking_pred/2023-Apr-25-2248_maxeplen10_maxtrainstep1000_exh16_gamma099_lrac3e-4_lrcr1e-3/ea9f39b4277e7ba3f00603e8654b95ed05d2571c_ligand_2.pdbqt
 12 12 0 0 0
SMALL
GASTEIGER

@<TRIPOS>ATOM
      1  C          8.3470    0.3270   -2.0290 C.3     1  UNL1        0.1270
      2  C          9.4780    0.3890   -1.0860 C.2     1  UNL1        0.3030
      3  O          9.5000   -0.4020   -0.1040 O.2     1  UNL1       -0.2520
      4  O         10.5350    1.2960   -1.2440 O.3     1  UNL1       -0.4810
      5  H         11.4740    0.9330   -1.3400 H       1  UNL1        0.2960
      6  C          7.2210   -0.5530   -1.5170 C.3     1  UNL1        0.0470
      7  C          6.4050    0.1630   -0.5010 C.2     1  UNL1       -0.0470
      8  C          5.8470    1.4010   -0.7860 C.2     1  UNL1        0.0040
      9  C          6.1690   -0.3460    0.7630 C.2     1  UNL1        0.0040
     10  C          5.0960    2.0930    0.1360 C.2     1  UNL1        0.0000
     11  C          5.4170    0.3480    1.6860 C.2     1  UNL1        0.0000
     12  C          4.8670    1.5770    1.3960 C.2     1  UNL1        0.0000
@<TRIPOS>BOND
     1     1     6    1
     2     1     2    1
     3     6     7    1
     4     5     4    1
     5     4     2    1
     6     2     3    2
     7     8     7    2
     8     8    10    1
     9     7     9    1
    10    10    12    2
    11     9    11    2
    12    12    11    1
