MODEL 1
REMARK VINA RESULT:      -7.3      0.000      0.000
REMARK SMILES O=C(O)CCc1ccccc1
REMARK SMILES IDX 4 1 2 2 1 3 3 4 5 6 6 7 7 8 11 9 8 10 10 11 9 12
REMARK H PARENT 3 5
REMARK Flexibility Score: inf
ROOT
ATOM      1  C   UNL     1       8.421  -0.613  -2.194  1.00  0.00     0.127 C 
ENDROOT
BRANCH   1   2
ATOM      2  C   UNL     1       8.445  -1.900  -2.911  1.00  0.00     0.303 C 
ATOM      3  O   UNL     1       9.547  -2.493  -3.070  1.00  0.00    -0.252 OA
BRANCH   2   4
ATOM      4  O   UNL     1       7.282  -2.493  -3.423  1.00  0.00    -0.481 OA
ATOM      5  H   UNL     1       6.973  -2.229  -4.349  1.00  0.00     0.296 HD
ENDBRANCH   2   4
ENDBRANCH   1   2
BRANCH   1   6
ATOM      6  C   UNL     1       7.035   0.005  -2.170  1.00  0.00     0.047 C 
BRANCH   6   7
ATOM      7  C   UNL     1       6.500   0.058  -0.784  1.00  0.00    -0.047 A 
ATOM      8  C   UNL     1       5.853   1.194  -0.318  1.00  0.00     0.004 A 
ATOM      9  C   UNL     1       6.621  -0.993   0.106  1.00  0.00     0.004 A 
ATOM     10  C   UNL     1       5.356   1.278   0.962  1.00  0.00     0.000 A 
ATOM     11  C   UNL     1       6.123  -0.907   1.388  1.00  0.00     0.000 A 
ATOM     12  C   UNL     1       5.483   0.224   1.843  1.00  0.00     0.000 A 
ENDBRANCH   6   7
ENDBRANCH   1   6
TORSDOF 4
ENDMDL
MODEL 2
REMARK VINA RESULT:      -7.2      0.096      1.723
REMARK SMILES O=C(O)CCc1ccccc1
REMARK SMILES IDX 4 1 2 2 1 3 3 4 5 6 6 7 7 8 11 9 8 10 10 11 9 12
REMARK H PARENT 3 5
REMARK Flexibility Score: inf
ROOT
ATOM      1  C   UNL     1       8.389  -0.629  -2.157  1.00  0.00     0.127 C 
ENDROOT
BRANCH   1   2
ATOM      2  C   UNL     1       8.396  -1.899  -2.905  1.00  0.00     0.303 C 
ATOM      3  O   UNL     1       7.297  -2.420  -3.238  1.00  0.00    -0.252 OA
BRANCH   2   4
ATOM      4  O   UNL     1       9.586  -2.550  -3.263  1.00  0.00    -0.481 OA
ATOM      5  H   UNL     1       9.884  -2.516  -4.228  1.00  0.00     0.296 HD
ENDBRANCH   2   4
ENDBRANCH   1   2
BRANCH   1   6
ATOM      6  C   UNL     1       7.018   0.022  -2.147  1.00  0.00     0.047 C 
BRANCH   6   7
ATOM      7  C   UNL     1       6.478   0.105  -0.764  1.00  0.00    -0.047 A 
ATOM      8  C   UNL     1       6.620  -0.958   0.116  1.00  0.00     0.004 A 
ATOM      9  C   UNL     1       5.809   1.218  -0.288  1.00  0.00     0.004 A 
ATOM     10  C   UNL     1       6.123  -0.916   1.398  1.00  0.00     0.000 A 
ATOM     11  C   UNL     1       5.312   1.259   0.997  1.00  0.00     0.000 A 
ATOM     12  C   UNL     1       5.455   0.199   1.864  1.00  0.00     0.000 A 
ENDBRANCH   6   7
ENDBRANCH   1   6
TORSDOF 4
ENDMDL
MODEL 3
REMARK VINA RESULT:      -6.8      3.397      5.071
REMARK SMILES O=C(O)CCc1ccccc1
REMARK SMILES IDX 4 1 2 2 1 3 3 4 5 6 6 7 7 8 11 9 8 10 10 11 9 12
REMARK H PARENT 3 5
REMARK Flexibility Score: inf
ROOT
ATOM      1  C   UNL     1       4.992   1.729   0.705  1.00  0.00     0.127 C 
ENDROOT
BRANCH   1   2
ATOM      2  C   UNL     1       4.466   1.097   1.928  1.00  0.00     0.303 C 
ATOM      3  O   UNL     1       5.150   0.205   2.499  1.00  0.00    -0.252 OA
BRANCH   2   4
ATOM      4  O   UNL     1       3.227   1.454   2.481  1.00  0.00    -0.481 OA
ATOM      5  H   UNL     1       3.172   2.294   3.040  1.00  0.00     0.296 HD
ENDBRANCH   2   4
ENDBRANCH   1   2
BRANCH   1   6
ATOM      6  C   UNL     1       6.504   1.862   0.734  1.00  0.00     0.047 C 
BRANCH   6   7
ATOM      7  C   UNL     1       7.130   1.052  -0.344  1.00  0.00    -0.047 A 
ATOM      8  C   UNL     1       8.473   1.209  -0.658  1.00  0.00     0.004 A 
ATOM      9  C   UNL     1       6.426   0.123  -1.087  1.00  0.00     0.004 A 
ATOM     10  C   UNL     1       9.079   0.482  -1.657  1.00  0.00     0.000 A 
ATOM     11  C   UNL     1       7.035  -0.605  -2.087  1.00  0.00     0.000 A 
ATOM     12  C   UNL     1       8.367  -0.442  -2.394  1.00  0.00     0.000 A 
ENDBRANCH   6   7
ENDBRANCH   1   6
TORSDOF 4
ENDMDL
MODEL 4
REMARK VINA RESULT:      -6.6      1.980      2.366
REMARK SMILES O=C(O)CCc1ccccc1
REMARK SMILES IDX 4 1 2 2 1 3 3 4 5 6 6 7 7 8 11 9 8 10 10 11 9 12
REMARK H PARENT 3 5
REMARK Flexibility Score: inf
ROOT
ATOM      1  C   UNL     1       8.347   0.327  -2.029  1.00  0.00     0.127 C 
ENDROOT
BRANCH   1   2
ATOM      2  C   UNL     1       9.478   0.389  -1.086  1.00  0.00     0.303 C 
ATOM      3  O   UNL     1       9.500  -0.402  -0.104  1.00  0.00    -0.252 OA
BRANCH   2   4
ATOM      4  O   UNL     1      10.535   1.296  -1.244  1.00  0.00    -0.481 OA
ATOM      5  H   UNL     1      11.474   0.933  -1.340  1.00  0.00     0.296 HD
ENDBRANCH   2   4
ENDBRANCH   1   2
BRANCH   1   6
ATOM      6  C   UNL     1       7.221  -0.553  -1.517  1.00  0.00     0.047 C 
BRANCH   6   7
ATOM      7  C   UNL     1       6.405   0.163  -0.501  1.00  0.00    -0.047 A 
ATOM      8  C   UNL     1       5.847   1.401  -0.786  1.00  0.00     0.004 A 
ATOM      9  C   UNL     1       6.169  -0.346   0.763  1.00  0.00     0.004 A 
ATOM     10  C   UNL     1       5.096   2.093   0.136  1.00  0.00     0.000 A 
ATOM     11  C   UNL     1       5.417   0.348   1.686  1.00  0.00     0.000 A 
ATOM     12  C   UNL     1       4.867   1.577   1.396  1.00  0.00     0.000 A 
ENDBRANCH   6   7
ENDBRANCH   1   6
TORSDOF 4
ENDMDL
MODEL 5
REMARK VINA RESULT:      -6.6      1.888      2.942
REMARK SMILES O=C(O)CCc1ccccc1
REMARK SMILES IDX 4 1 2 2 1 3 3 4 5 6 6 7 7 8 11 9 8 10 10 11 9 12
REMARK H PARENT 3 5
REMARK Flexibility Score: inf
ROOT
ATOM      1  C   UNL     1       8.172  -1.709   1.182  1.00  0.00     0.127 C 
ENDROOT
BRANCH   1   2
ATOM      2  C   UNL     1       8.525  -2.875   0.354  1.00  0.00     0.303 C 
ATOM      3  O   UNL     1       9.229  -3.793   0.856  1.00  0.00    -0.252 OA
BRANCH   2   4
ATOM      4  O   UNL     1       8.103  -3.002  -0.978  1.00  0.00    -0.481 OA
ATOM      5  H   UNL     1       7.627  -2.221  -1.410  1.00  0.00     0.296 HD
ENDBRANCH   2   4
ENDBRANCH   1   2
BRANCH   1   6
ATOM      6  C   UNL     1       6.674  -1.595   1.404  1.00  0.00     0.047 C 
BRANCH   6   7
ATOM      7  C   UNL     1       6.152  -0.311   0.866  1.00  0.00    -0.047 A 
ATOM      8  C   UNL     1       6.411   0.064  -0.444  1.00  0.00     0.004 A 
ATOM      9  C   UNL     1       5.403   0.569   1.626  1.00  0.00     0.004 A 
ATOM     10  C   UNL     1       5.951   1.250  -0.968  1.00  0.00     0.000 A 
ATOM     11  C   UNL     1       4.943   1.757   1.099  1.00  0.00     0.000 A 
ATOM     12  C   UNL     1       5.205   2.123  -0.202  1.00  0.00     0.000 A 
ENDBRANCH   6   7
ENDBRANCH   1   6
TORSDOF 4
ENDMDL
