@<TRIPOS>MOLECULE
/home/cewinharhar/GITHUB/reincatalyze/data/processed/docking_pred/2023-Apr-25-2248_maxeplen10_maxtrainstep1000_exh16_gamma099_lrac3e-4_lrcr1e-3/ea9f39b4277e7ba3f00603e8654b95ed05d2571c_ligand_2.pdbqt
 12 12 0 0 0
SMALL
GASTEIGER

@<TRIPOS>ATOM
      1  C          8.1720   -1.7090    1.1820 C.3     1  UNL1        0.1270
      2  C          8.5250   -2.8750    0.3540 C.2     1  UNL1        0.3030
      3  O          9.2290   -3.7930    0.8560 O.2     1  UNL1       -0.2520
      4  O          8.1030   -3.0020   -0.9780 O.3     1  UNL1       -0.4810
      5  H          7.6270   -2.2210   -1.4100 H       1  UNL1        0.2960
      6  C          6.6740   -1.5950    1.4040 C.3     1  UNL1        0.0470
      7  C          6.1520   -0.3110    0.8660 C.2     1  UNL1       -0.0470
      8  C          6.4110    0.0640   -0.4440 C.2     1  UNL1        0.0040
      9  C          5.4030    0.5690    1.6260 C.2     1  UNL1        0.0040
     10  C          5.9510    1.2500   -0.9680 C.2     1  UNL1        0.0000
     11  C          4.9430    1.7570    1.0990 C.2     1  UNL1        0.0000
     12  C          5.2050    2.1230   -0.2020 C.2     1  UNL1        0.0000
@<TRIPOS>BOND
     1     5     4    1
     2     4     2    1
     3    10     8    1
     4    10    12    2
     5     8     7    2
     6    12    11    1
     7     2     3    2
     8     2     1    1
     9     7     6    1
    10     7     9    1
    11    11     9    2
    12     1     6    1
