@<TRIPOS>MOLECULE
/home/cewinharhar/GITHUB/reincatalyze/data/processed/docking_pred/2023-Apr-25-2248_maxeplen10_maxtrainstep1000_exh16_gamma099_lrac3e-4_lrcr1e-3/eb53456adf8787420c4e8f25112cf644d6bf88f9_ligand_2.pdbqt
 12 12 0 0 0
SMALL
GASTEIGER

@<TRIPOS>ATOM
      1  C          4.9920    1.7920    0.7330 C.3     1  UNL1        0.1270
      2  C          4.4610    1.1130    1.9290 C.2     1  UNL1        0.3030
      3  O          5.1430    0.2000    2.4670 O.2     1  UNL1       -0.2520
      4  O          3.2210    1.4500    2.4910 O.3     1  UNL1       -0.4810
      5  H          2.4030    0.9330    2.2010 H       1  UNL1        0.2960
      6  C          6.5040    1.9210    0.7700 C.3     1  UNL1        0.0470
      7  C          7.1330    1.1330   -0.3220 C.2     1  UNL1       -0.0470
      8  C          6.3810    0.2460   -1.0780 C.2     1  UNL1        0.0040
      9  C          8.4770    1.2280   -0.6350 C.2     1  UNL1        0.0040
     10  C          6.9360   -0.5060   -2.0890 C.2     1  UNL1        0.0000
     11  C          9.0310    0.4750   -1.6470 C.2     1  UNL1        0.0000
     12  C          8.2790   -0.4040   -2.3920 C.2     1  UNL1        0.0000
@<TRIPOS>BOND
     1    12    10    2
     2    12    11    1
     3    10     8    1
     4    11     9    2
     5     8     7    2
     6     9     7    1
     7     7     6    1
     8     1     6    1
     9     1     2    1
    10     2     3    2
    11     2     4    1
    12     5     4    1
