@<TRIPOS>MOLECULE
/home/cewinharhar/GITHUB/reincatalyze/data/processed/docking_pred/2023-Apr-25-2248_maxeplen10_maxtrainstep1000_exh16_gamma099_lrac3e-4_lrcr1e-3/eb53456adf8787420c4e8f25112cf644d6bf88f9_ligand_2.pdbqt
 12 12 0 0 0
SMALL
GASTEIGER

@<TRIPOS>ATOM
      1  C          8.4240   -0.6580   -2.1130 C.3     1  UNL1        0.1270
      2  C          8.4110   -1.9130   -2.8850 C.2     1  UNL1        0.3030
      3  O          7.3040   -2.4170   -3.2160 O.2     1  UNL1       -0.2520
      4  O          9.5910   -2.5680   -3.2670 O.3     1  UNL1       -0.4810
      5  H          9.5200   -3.3890   -3.8530 H       1  UNL1        0.2960
      6  C          7.0760    0.0400   -2.1300 C.3     1  UNL1        0.0470
      7  C          6.5040    0.1280   -0.7610 C.2     1  UNL1       -0.0470
      8  C          6.6320   -0.9290    0.1280 C.2     1  UNL1        0.0040
      9  C          5.8180    1.2390   -0.3070 C.2     1  UNL1        0.0040
     10  C          6.1050   -0.8830    1.3980 C.2     1  UNL1        0.0000
     11  C          5.2910    1.2840    0.9660 C.2     1  UNL1        0.0000
     12  C          5.4210    0.2300    1.8420 C.2     1  UNL1        0.0000
@<TRIPOS>BOND
     1     5     4    1
     2     4     2    1
     3     3     2    2
     4     2     1    1
     5     6     1    1
     6     6     7    1
     7     7     9    2
     8     7     8    1
     9     9    11    1
    10     8    10    2
    11    11    12    2
    12    10    12    1
