@<TRIPOS>MOLECULE
/home/cewinharhar/GITHUB/reincatalyze/data/processed/docking_pred/2023-Apr-25-2248_maxeplen10_maxtrainstep1000_exh16_gamma099_lrac3e-4_lrcr1e-3/eb53456adf8787420c4e8f25112cf644d6bf88f9_ligand_2.pdbqt
 12 12 0 0 0
SMALL
GASTEIGER

@<TRIPOS>ATOM
      1  C          8.1620   -1.6410    1.1410 C.3     1  UNL1        0.1270
      2  C          8.4890   -2.8140    0.3100 C.2     1  UNL1        0.3030
      3  O          9.1600   -3.7540    0.8160 O.2     1  UNL1       -0.2520
      4  O          8.0770   -2.9220   -1.0260 O.3     1  UNL1       -0.4810
      5  H          7.4070   -3.6390   -1.2690 H       1  UNL1        0.2960
      6  C          6.6680   -1.5010    1.3730 C.3     1  UNL1        0.0470
      7  C          6.1590   -0.2240    0.8100 C.2     1  UNL1       -0.0470
      8  C          5.3730    0.6250    1.5780 C.2     1  UNL1        0.0040
      9  C          6.4230    0.1820   -0.4850 C.2     1  UNL1        0.0040
     10  C          4.8780    1.8090    1.0830 C.2     1  UNL1        0.0000
     11  C          5.9260    1.3680   -0.9800 C.2     1  UNL1        0.0000
     12  C          5.1460    2.2040   -0.2130 C.2     1  UNL1        0.0000
@<TRIPOS>BOND
     1     5     4    1
     2     4     2    1
     3    11     9    1
     4    11    12    2
     5     9     7    2
     6    12    10    1
     7     2     3    2
     8     2     1    1
     9     7     6    1
    10     7     8    1
    11    10     8    2
    12     1     6    1
