@<TRIPOS>MOLECULE
/home/cewinharhar/GITHUB/reincatalyze/data/processed/docking_pred/2023-Apr-25-2248_maxeplen10_maxtrainstep1000_exh16_gamma099_lrac3e-4_lrcr1e-3/eb53456adf8787420c4e8f25112cf644d6bf88f9_ligand_2.pdbqt
 12 12 0 0 0
SMALL
GASTEIGER

@<TRIPOS>ATOM
      1  C          8.2530    0.0800   -2.2250 C.3     1  UNL1        0.1270
      2  C          9.3530    0.3370   -1.2790 C.2     1  UNL1        0.3030
      3  O          9.4630   -0.3910   -0.2550 O.2     1  UNL1       -0.2520
      4  O         10.2860    1.3650   -1.4770 O.3     1  UNL1       -0.4810
      5  H         10.1780    1.9670   -2.2820 H       1  UNL1        0.2960
      6  C          7.1120   -0.6890   -1.5840 C.3     1  UNL1        0.0470
      7  C          6.3580    0.1700   -0.6340 C.2     1  UNL1       -0.0470
      8  C          6.1410   -0.2420    0.6730 C.2     1  UNL1        0.0040
      9  C          5.8320    1.3980   -0.9910 C.2     1  UNL1        0.0040
     10  C          5.4380    0.5250    1.5740 C.2     1  UNL1        0.0000
     11  C          5.1280    2.1650   -0.0880 C.2     1  UNL1        0.0000
     12  C          4.9160    1.7490    1.2070 C.2     1  UNL1        0.0000
@<TRIPOS>BOND
     1     5     4    1
     2     1     6    1
     3     1     2    1
     4     6     7    1
     5     4     2    1
     6     2     3    2
     7     9     7    2
     8     9    11    1
     9     7     8    1
    10    11    12    2
    11     8    10    2
    12    12    10    1
