@<TRIPOS>MOLECULE
/home/cewinharhar/GITHUB/reincatalyze/data/processed/docking_pred/2023-Apr-25-2248_maxeplen10_maxtrainstep1000_exh16_gamma099_lrac3e-4_lrcr1e-3/eb53456adf8787420c4e8f25112cf644d6bf88f9_ligand_2.pdbqt
 12 12 0 0 0
SMALL
GASTEIGER

@<TRIPOS>ATOM
      1  C          8.4470   -0.6260   -2.1710 C.3     1  UNL1        0.1270
      2  C          8.4740   -1.9000   -2.9120 C.2     1  UNL1        0.3030
      3  O          9.5790   -2.4790   -3.0940 O.2     1  UNL1       -0.2520
      4  O          7.3100   -2.4930   -3.4210 O.3     1  UNL1       -0.4810
      5  H          7.3440   -2.9150   -4.3400 H       1  UNL1        0.2960
      6  C          7.0670    0.0050   -2.1650 C.3     1  UNL1        0.0470
      7  C          6.5170    0.0690   -0.7860 C.2     1  UNL1       -0.0470
      8  C          5.8590    1.2060   -0.3380 C.2     1  UNL1        0.0040
      9  C          6.6340   -0.9730    0.1160 C.2     1  UNL1        0.0040
     10  C          5.3480    1.3000    0.9360 C.2     1  UNL1        0.0000
     11  C          6.1210   -0.8770    1.3920 C.2     1  UNL1        0.0000
     12  C          5.4710    0.2550    1.8290 C.2     1  UNL1        0.0000
@<TRIPOS>BOND
     1     5     4    1
     2     4     2    1
     3     3     2    2
     4     2     1    1
     5     1     6    1
     6     6     7    1
     7     7     8    2
     8     7     9    1
     9     8    10    1
    10     9    11    2
    11    10    12    2
    12    11    12    1
