MODEL 1
REMARK VINA RESULT:      -7.3      0.000      0.000
REMARK SMILES O=C(O)CCc1ccccc1
REMARK SMILES IDX 4 1 2 2 1 3 3 4 5 6 6 7 7 8 11 9 8 10 10 11 9 12
REMARK H PARENT 3 5
REMARK Flexibility Score: inf
ROOT
ATOM      1  C   UNL     1       8.447  -0.626  -2.171  1.00  0.00     0.127 C 
ENDROOT
BRANCH   1   2
ATOM      2  C   UNL     1       8.474  -1.900  -2.912  1.00  0.00     0.303 C 
ATOM      3  O   UNL     1       9.579  -2.479  -3.094  1.00  0.00    -0.252 OA
BRANCH   2   4
ATOM      4  O   UNL     1       7.310  -2.493  -3.421  1.00  0.00    -0.481 OA
ATOM      5  H   UNL     1       7.344  -2.915  -4.340  1.00  0.00     0.296 HD
ENDBRANCH   2   4
ENDBRANCH   1   2
BRANCH   1   6
ATOM      6  C   UNL     1       7.067   0.005  -2.165  1.00  0.00     0.047 C 
BRANCH   6   7
ATOM      7  C   UNL     1       6.517   0.069  -0.786  1.00  0.00    -0.047 A 
ATOM      8  C   UNL     1       5.859   1.206  -0.338  1.00  0.00     0.004 A 
ATOM      9  C   UNL     1       6.634  -0.973   0.116  1.00  0.00     0.004 A 
ATOM     10  C   UNL     1       5.348   1.300   0.936  1.00  0.00     0.000 A 
ATOM     11  C   UNL     1       6.121  -0.877   1.392  1.00  0.00     0.000 A 
ATOM     12  C   UNL     1       5.471   0.255   1.829  1.00  0.00     0.000 A 
ENDBRANCH   6   7
ENDBRANCH   1   6
TORSDOF 4
ENDMDL
MODEL 2
REMARK VINA RESULT:      -7.3      0.103      1.723
REMARK SMILES O=C(O)CCc1ccccc1
REMARK SMILES IDX 4 1 2 2 1 3 3 4 5 6 6 7 7 8 11 9 8 10 10 11 9 12
REMARK H PARENT 3 5
REMARK Flexibility Score: inf
ROOT
ATOM      1  C   UNL     1       8.424  -0.658  -2.113  1.00  0.00     0.127 C 
ENDROOT
BRANCH   1   2
ATOM      2  C   UNL     1       8.411  -1.913  -2.885  1.00  0.00     0.303 C 
ATOM      3  O   UNL     1       7.304  -2.417  -3.216  1.00  0.00    -0.252 OA
BRANCH   2   4
ATOM      4  O   UNL     1       9.591  -2.568  -3.267  1.00  0.00    -0.481 OA
ATOM      5  H   UNL     1       9.520  -3.389  -3.853  1.00  0.00     0.296 HD
ENDBRANCH   2   4
ENDBRANCH   1   2
BRANCH   1   6
ATOM      6  C   UNL     1       7.076   0.040  -2.130  1.00  0.00     0.047 C 
BRANCH   6   7
ATOM      7  C   UNL     1       6.504   0.128  -0.761  1.00  0.00    -0.047 A 
ATOM      8  C   UNL     1       6.632  -0.929   0.128  1.00  0.00     0.004 A 
ATOM      9  C   UNL     1       5.818   1.239  -0.307  1.00  0.00     0.004 A 
ATOM     10  C   UNL     1       6.105  -0.883   1.398  1.00  0.00     0.000 A 
ATOM     11  C   UNL     1       5.291   1.284   0.966  1.00  0.00     0.000 A 
ATOM     12  C   UNL     1       5.421   0.230   1.842  1.00  0.00     0.000 A 
ENDBRANCH   6   7
ENDBRANCH   1   6
TORSDOF 4
ENDMDL
MODEL 3
REMARK VINA RESULT:      -6.8      3.398      5.093
REMARK SMILES O=C(O)CCc1ccccc1
REMARK SMILES IDX 4 1 2 2 1 3 3 4 5 6 6 7 7 8 11 9 8 10 10 11 9 12
REMARK H PARENT 3 5
REMARK Flexibility Score: inf
ROOT
ATOM      1  C   UNL     1       4.992   1.792   0.733  1.00  0.00     0.127 C 
ENDROOT
BRANCH   1   2
ATOM      2  C   UNL     1       4.461   1.113   1.929  1.00  0.00     0.303 C 
ATOM      3  O   UNL     1       5.143   0.200   2.467  1.00  0.00    -0.252 OA
BRANCH   2   4
ATOM      4  O   UNL     1       3.221   1.450   2.491  1.00  0.00    -0.481 OA
ATOM      5  H   UNL     1       2.403   0.933   2.201  1.00  0.00     0.296 HD
ENDBRANCH   2   4
ENDBRANCH   1   2
BRANCH   1   6
ATOM      6  C   UNL     1       6.504   1.921   0.770  1.00  0.00     0.047 C 
BRANCH   6   7
ATOM      7  C   UNL     1       7.133   1.133  -0.322  1.00  0.00    -0.047 A 
ATOM      8  C   UNL     1       6.381   0.246  -1.078  1.00  0.00     0.004 A 
ATOM      9  C   UNL     1       8.477   1.228  -0.635  1.00  0.00     0.004 A 
ATOM     10  C   UNL     1       6.936  -0.506  -2.089  1.00  0.00     0.000 A 
ATOM     11  C   UNL     1       9.031   0.475  -1.647  1.00  0.00     0.000 A 
ATOM     12  C   UNL     1       8.279  -0.404  -2.392  1.00  0.00     0.000 A 
ENDBRANCH   6   7
ENDBRANCH   1   6
TORSDOF 4
ENDMDL
MODEL 4
REMARK VINA RESULT:      -6.6      1.917      2.644
REMARK SMILES O=C(O)CCc1ccccc1
REMARK SMILES IDX 4 1 2 2 1 3 3 4 5 6 6 7 7 8 11 9 8 10 10 11 9 12
REMARK H PARENT 3 5
REMARK Flexibility Score: inf
ROOT
ATOM      1  C   UNL     1       8.253   0.080  -2.225  1.00  0.00     0.127 C 
ENDROOT
BRANCH   1   2
ATOM      2  C   UNL     1       9.353   0.337  -1.279  1.00  0.00     0.303 C 
ATOM      3  O   UNL     1       9.463  -0.391  -0.255  1.00  0.00    -0.252 OA
BRANCH   2   4
ATOM      4  O   UNL     1      10.286   1.365  -1.477  1.00  0.00    -0.481 OA
ATOM      5  H   UNL     1      10.178   1.967  -2.282  1.00  0.00     0.296 HD
ENDBRANCH   2   4
ENDBRANCH   1   2
BRANCH   1   6
ATOM      6  C   UNL     1       7.112  -0.689  -1.584  1.00  0.00     0.047 C 
BRANCH   6   7
ATOM      7  C   UNL     1       6.358   0.170  -0.634  1.00  0.00    -0.047 A 
ATOM      8  C   UNL     1       6.141  -0.242   0.673  1.00  0.00     0.004 A 
ATOM      9  C   UNL     1       5.832   1.398  -0.991  1.00  0.00     0.004 A 
ATOM     10  C   UNL     1       5.438   0.525   1.574  1.00  0.00     0.000 A 
ATOM     11  C   UNL     1       5.128   2.165  -0.088  1.00  0.00     0.000 A 
ATOM     12  C   UNL     1       4.916   1.749   1.207  1.00  0.00     0.000 A 
ENDBRANCH   6   7
ENDBRANCH   1   6
TORSDOF 4
ENDMDL
MODEL 5
REMARK VINA RESULT:      -6.6      1.872      2.858
REMARK SMILES O=C(O)CCc1ccccc1
REMARK SMILES IDX 4 1 2 2 1 3 3 4 5 6 6 7 7 8 11 9 8 10 10 11 9 12
REMARK H PARENT 3 5
REMARK Flexibility Score: inf
ROOT
ATOM      1  C   UNL     1       8.162  -1.641   1.141  1.00  0.00     0.127 C 
ENDROOT
BRANCH   1   2
ATOM      2  C   UNL     1       8.489  -2.814   0.310  1.00  0.00     0.303 C 
ATOM      3  O   UNL     1       9.160  -3.754   0.816  1.00  0.00    -0.252 OA
BRANCH   2   4
ATOM      4  O   UNL     1       8.077  -2.922  -1.026  1.00  0.00    -0.481 OA
ATOM      5  H   UNL     1       7.407  -3.639  -1.269  1.00  0.00     0.296 HD
ENDBRANCH   2   4
ENDBRANCH   1   2
BRANCH   1   6
ATOM      6  C   UNL     1       6.668  -1.501   1.373  1.00  0.00     0.047 C 
BRANCH   6   7
ATOM      7  C   UNL     1       6.159  -0.224   0.810  1.00  0.00    -0.047 A 
ATOM      8  C   UNL     1       5.373   0.625   1.578  1.00  0.00     0.004 A 
ATOM      9  C   UNL     1       6.423   0.182  -0.485  1.00  0.00     0.004 A 
ATOM     10  C   UNL     1       4.878   1.809   1.083  1.00  0.00     0.000 A 
ATOM     11  C   UNL     1       5.926   1.368  -0.980  1.00  0.00     0.000 A 
ATOM     12  C   UNL     1       5.146   2.204  -0.213  1.00  0.00     0.000 A 
ENDBRANCH   6   7
ENDBRANCH   1   6
TORSDOF 4
ENDMDL
