MODEL 1
REMARK VINA RESULT:      -6.8      0.000      0.000
REMARK SMILES O=C(O)CCc1ccccc1
REMARK SMILES IDX 4 1 2 2 1 3 3 4 5 6 6 7 7 8 11 9 8 10 10 11 9 12
REMARK H PARENT 3 5
REMARK Flexibility Score: inf
ROOT
ATOM      1  C   UNL     1       4.994   1.786   0.715  1.00  0.00     0.127 C 
ENDROOT
BRANCH   1   2
ATOM      2  C   UNL     1       4.473   1.121   1.922  1.00  0.00     0.303 C 
ATOM      3  O   UNL     1       5.165   0.222   2.473  1.00  0.00    -0.252 OA
BRANCH   2   4
ATOM      4  O   UNL     1       3.231   1.454   2.482  1.00  0.00    -0.481 OA
ATOM      5  H   UNL     1       2.428   0.884   2.252  1.00  0.00     0.296 HD
ENDBRANCH   2   4
ENDBRANCH   1   2
BRANCH   1   6
ATOM      6  C   UNL     1       6.507   1.910   0.736  1.00  0.00     0.047 C 
BRANCH   6   7
ATOM      7  C   UNL     1       7.124   1.094  -0.342  1.00  0.00    -0.047 A 
ATOM      8  C   UNL     1       8.472   1.221  -0.643  1.00  0.00     0.004 A 
ATOM      9  C   UNL     1       6.404   0.186  -1.098  1.00  0.00     0.004 A 
ATOM     10  C   UNL     1       9.070   0.488  -1.642  1.00  0.00     0.000 A 
ATOM     11  C   UNL     1       7.004  -0.548  -2.098  1.00  0.00     0.000 A 
ATOM     12  C   UNL     1       8.342  -0.414  -2.392  1.00  0.00     0.000 A 
ENDBRANCH   6   7
ENDBRANCH   1   6
TORSDOF 4
ENDMDL
MODEL 2
REMARK VINA RESULT:      -6.7      3.391      5.199
REMARK SMILES O=C(O)CCc1ccccc1
REMARK SMILES IDX 4 1 2 2 1 3 3 4 5 6 6 7 7 8 11 9 8 10 10 11 9 12
REMARK H PARENT 3 5
REMARK Flexibility Score: inf
ROOT
ATOM      1  C   UNL     1       8.428  -0.640  -2.108  1.00  0.00     0.127 C 
ENDROOT
BRANCH   1   2
ATOM      2  C   UNL     1       8.531  -1.870  -2.913  1.00  0.00     0.303 C 
ATOM      3  O   UNL     1       7.479  -2.388  -3.376  1.00  0.00    -0.252 OA
BRANCH   2   4
ATOM      4  O   UNL     1       9.762  -2.485  -3.184  1.00  0.00    -0.481 OA
ATOM      5  H   UNL     1       9.777  -3.480  -3.361  1.00  0.00     0.296 HD
ENDBRANCH   2   4
ENDBRANCH   1   2
BRANCH   1   6
ATOM      6  C   UNL     1       7.031  -0.045  -2.145  1.00  0.00     0.047 C 
BRANCH   6   7
ATOM      7  C   UNL     1       6.468   0.077  -0.775  1.00  0.00    -0.047 A 
ATOM      8  C   UNL     1       5.796   1.227  -0.386  1.00  0.00     0.004 A 
ATOM      9  C   UNL     1       6.585  -0.922   0.174  1.00  0.00     0.004 A 
ATOM     10  C   UNL     1       5.272   1.375   0.877  1.00  0.00     0.000 A 
ATOM     11  C   UNL     1       6.059  -0.772   1.440  1.00  0.00     0.000 A 
ATOM     12  C   UNL     1       5.396   0.373   1.818  1.00  0.00     0.000 A 
ENDBRANCH   6   7
ENDBRANCH   1   6
TORSDOF 4
ENDMDL
MODEL 3
REMARK VINA RESULT:      -6.7      3.424      5.105
REMARK SMILES O=C(O)CCc1ccccc1
REMARK SMILES IDX 4 1 2 2 1 3 3 4 5 6 6 7 7 8 11 9 8 10 10 11 9 12
REMARK H PARENT 3 5
REMARK Flexibility Score: inf
ROOT
ATOM      1  C   UNL     1       8.402  -0.597  -2.124  1.00  0.00     0.127 C 
ENDROOT
BRANCH   1   2
ATOM      2  C   UNL     1       8.508  -1.851  -2.889  1.00  0.00     0.303 C 
ATOM      3  O   UNL     1       9.638  -2.395  -3.021  1.00  0.00    -0.252 OA
BRANCH   2   4
ATOM      4  O   UNL     1       7.392  -2.466  -3.477  1.00  0.00    -0.481 OA
ATOM      5  H   UNL     1       6.605  -2.703  -2.888  1.00  0.00     0.296 HD
ENDBRANCH   2   4
ENDBRANCH   1   2
BRANCH   1   6
ATOM      6  C   UNL     1       6.993  -0.031  -2.142  1.00  0.00     0.047 C 
BRANCH   6   7
ATOM      7  C   UNL     1       6.454   0.100  -0.763  1.00  0.00    -0.047 A 
ATOM      8  C   UNL     1       6.582  -0.939   0.148  1.00  0.00     0.004 A 
ATOM      9  C   UNL     1       5.800   1.235  -0.319  1.00  0.00     0.004 A 
ATOM     10  C   UNL     1       6.085  -0.853   1.429  1.00  0.00     0.000 A 
ATOM     11  C   UNL     1       5.303   1.319   0.963  1.00  0.00     0.000 A 
ATOM     12  C   UNL     1       5.432   0.284   1.861  1.00  0.00     0.000 A 
ENDBRANCH   6   7
ENDBRANCH   1   6
TORSDOF 4
ENDMDL
MODEL 4
REMARK VINA RESULT:      -6.6      2.955      4.707
REMARK SMILES O=C(O)CCc1ccccc1
REMARK SMILES IDX 4 1 2 2 1 3 3 4 5 6 6 7 7 8 11 9 8 10 10 11 9 12
REMARK H PARENT 3 5
REMARK Flexibility Score: inf
ROOT
ATOM      1  C   UNL     1       8.356   0.239  -2.349  1.00  0.00     0.127 C 
ENDROOT
BRANCH   1   2
ATOM      2  C   UNL     1       8.203  -1.211  -2.562  1.00  0.00     0.303 C 
ATOM      3  O   UNL     1       9.229  -1.907  -2.792  1.00  0.00    -0.252 OA
BRANCH   2   4
ATOM      4  O   UNL     1       6.954  -1.846  -2.516  1.00  0.00    -0.481 OA
ATOM      5  H   UNL     1       6.630  -2.336  -3.339  1.00  0.00     0.296 HD
ENDBRANCH   2   4
ENDBRANCH   1   2
BRANCH   1   6
ATOM      6  C   UNL     1       8.752   0.571  -0.921  1.00  0.00     0.047 C 
BRANCH   6   7
ATOM      7  C   UNL     1       7.578   0.499  -0.012  1.00  0.00    -0.047 A 
ATOM      8  C   UNL     1       6.487   1.336  -0.197  1.00  0.00     0.004 A 
ATOM      9  C   UNL     1       7.509  -0.381   1.053  1.00  0.00     0.004 A 
ATOM     10  C   UNL     1       5.390   1.300   0.633  1.00  0.00     0.000 A 
ATOM     11  C   UNL     1       6.410  -0.415   1.883  1.00  0.00     0.000 A 
ATOM     12  C   UNL     1       5.332   0.420   1.694  1.00  0.00     0.000 A 
ENDBRANCH   6   7
ENDBRANCH   1   6
TORSDOF 4
ENDMDL
MODEL 5
REMARK VINA RESULT:      -6.5      2.742      4.764
REMARK SMILES O=C(O)CCc1ccccc1
REMARK SMILES IDX 4 1 2 2 1 3 3 4 5 6 6 7 7 8 11 9 8 10 10 11 9 12
REMARK H PARENT 3 5
REMARK Flexibility Score: inf
ROOT
ATOM      1  C   UNL     1       8.506   0.697  -1.601  1.00  0.00     0.127 C 
ENDROOT
BRANCH   1   2
ATOM      2  C   UNL     1       9.684   0.306  -0.806  1.00  0.00     0.303 C 
ATOM      3  O   UNL     1       9.532  -0.486   0.164  1.00  0.00    -0.252 OA
BRANCH   2   4
ATOM      4  O   UNL     1      10.971   0.782  -1.093  1.00  0.00    -0.481 OA
ATOM      5  H   UNL     1      11.576   1.033  -0.323  1.00  0.00     0.296 HD
ENDBRANCH   2   4
ENDBRANCH   1   2
BRANCH   1   6
ATOM      6  C   UNL     1       7.331  -0.239  -1.384  1.00  0.00     0.047 C 
BRANCH   6   7
ATOM      7  C   UNL     1       6.430   0.274  -0.319  1.00  0.00    -0.047 A 
ATOM      8  C   UNL     1       5.793   1.499  -0.460  1.00  0.00     0.004 A 
ATOM      9  C   UNL     1       6.187  -0.418   0.853  1.00  0.00     0.004 A 
ATOM     10  C   UNL     1       4.962   2.006   0.512  1.00  0.00     0.000 A 
ATOM     11  C   UNL     1       5.354   0.091   1.826  1.00  0.00     0.000 A 
ATOM     12  C   UNL     1       4.727   1.308   1.680  1.00  0.00     0.000 A 
ENDBRANCH   6   7
ENDBRANCH   1   6
TORSDOF 4
ENDMDL
