@<TRIPOS>MOLECULE
/home/cewinharhar/GITHUB/reincatalyze/data/processed/docking_pred/2023-Apr-25-2248_maxeplen10_maxtrainstep1000_exh16_gamma099_lrac3e-4_lrcr1e-3/f15420a79f585431148ea344134f913ab78e73cd_ligand_2.pdbqt
 12 12 0 0 0
SMALL
GASTEIGER

@<TRIPOS>ATOM
      1  C          8.4280   -0.6400   -2.1080 C.3     1  UNL1        0.1270
      2  C          8.5310   -1.8700   -2.9130 C.2     1  UNL1        0.3030
      3  O          7.4790   -2.3880   -3.3760 O.2     1  UNL1       -0.2520
      4  O          9.7620   -2.4850   -3.1840 O.3     1  UNL1       -0.4810
      5  H          9.7770   -3.4800   -3.3610 H       1  UNL1        0.2960
      6  C          7.0310   -0.0450   -2.1450 C.3     1  UNL1        0.0470
      7  C          6.4680    0.0770   -0.7750 C.2     1  UNL1       -0.0470
      8  C          5.7960    1.2270   -0.3860 C.2     1  UNL1        0.0040
      9  C          6.5850   -0.9220    0.1740 C.2     1  UNL1        0.0040
     10  C          5.2720    1.3750    0.8770 C.2     1  UNL1        0.0000
     11  C          6.0590   -0.7720    1.4400 C.2     1  UNL1        0.0000
     12  C          5.3960    0.3730    1.8180 C.2     1  UNL1        0.0000
@<TRIPOS>BOND
     1     3     2    2
     2     5     4    1
     3     4     2    1
     4     2     1    1
     5     6     1    1
     6     6     7    1
     7     7     8    2
     8     7     9    1
     9     8    10    1
    10     9    11    2
    11    10    12    2
    12    11    12    1
