@<TRIPOS>MOLECULE
/home/cewinharhar/GITHUB/reincatalyze/data/processed/docking_pred/2023-Apr-25-2248_maxeplen10_maxtrainstep1000_exh16_gamma099_lrac3e-4_lrcr1e-3/f15420a79f585431148ea344134f913ab78e73cd_ligand_2.pdbqt
 12 12 0 0 0
SMALL
GASTEIGER

@<TRIPOS>ATOM
      1  C          4.9940    1.7860    0.7150 C.3     1  UNL1        0.1270
      2  C          4.4730    1.1210    1.9220 C.2     1  UNL1        0.3030
      3  O          5.1650    0.2220    2.4730 O.2     1  UNL1       -0.2520
      4  O          3.2310    1.4540    2.4820 O.3     1  UNL1       -0.4810
      5  H          2.4280    0.8840    2.2520 H       1  UNL1        0.2960
      6  C          6.5070    1.9100    0.7360 C.3     1  UNL1        0.0470
      7  C          7.1240    1.0940   -0.3420 C.2     1  UNL1       -0.0470
      8  C          8.4720    1.2210   -0.6430 C.2     1  UNL1        0.0040
      9  C          6.4040    0.1860   -1.0980 C.2     1  UNL1        0.0040
     10  C          9.0700    0.4880   -1.6420 C.2     1  UNL1        0.0000
     11  C          7.0040   -0.5480   -2.0980 C.2     1  UNL1        0.0000
     12  C          8.3420   -0.4140   -2.3920 C.2     1  UNL1        0.0000
@<TRIPOS>BOND
     1    12    11    2
     2    12    10    1
     3    11     9    1
     4    10     8    2
     5     9     7    2
     6     8     7    1
     7     7     6    1
     8     1     6    1
     9     1     2    1
    10     2     3    2
    11     2     4    1
    12     5     4    1
