@<TRIPOS>MOLECULE
/home/cewinharhar/GITHUB/reincatalyze/data/processed/docking_pred/2023-Apr-25-2248_maxeplen10_maxtrainstep1000_exh16_gamma099_lrac3e-4_lrcr1e-3/f15420a79f585431148ea344134f913ab78e73cd_ligand_2.pdbqt
 12 12 0 0 0
SMALL
GASTEIGER

@<TRIPOS>ATOM
      1  C          8.4020   -0.5970   -2.1240 C.3     1  UNL1        0.1270
      2  C          8.5080   -1.8510   -2.8890 C.2     1  UNL1        0.3030
      3  O          9.6380   -2.3950   -3.0210 O.2     1  UNL1       -0.2520
      4  O          7.3920   -2.4660   -3.4770 O.3     1  UNL1       -0.4810
      5  H          6.6050   -2.7030   -2.8880 H       1  UNL1        0.2960
      6  C          6.9930   -0.0310   -2.1420 C.3     1  UNL1        0.0470
      7  C          6.4540    0.1000   -0.7630 C.2     1  UNL1       -0.0470
      8  C          6.5820   -0.9390    0.1480 C.2     1  UNL1        0.0040
      9  C          5.8000    1.2350   -0.3190 C.2     1  UNL1        0.0040
     10  C          6.0850   -0.8530    1.4290 C.2     1  UNL1        0.0000
     11  C          5.3030    1.3190    0.9630 C.2     1  UNL1        0.0000
     12  C          5.4320    0.2840    1.8610 C.2     1  UNL1        0.0000
@<TRIPOS>BOND
     1     4     2    1
     2     4     5    1
     3     3     2    2
     4     2     1    1
     5     6     1    1
     6     6     7    1
     7     7     9    2
     8     7     8    1
     9     9    11    1
    10     8    10    2
    11    11    12    2
    12    10    12    1
