@<TRIPOS>MOLECULE
/home/cewinharhar/GITHUB/reincatalyze/data/processed/docking_pred/2023-Apr-25-2248_maxeplen10_maxtrainstep1000_exh16_gamma099_lrac3e-4_lrcr1e-3/f15420a79f585431148ea344134f913ab78e73cd_ligand_2.pdbqt
 12 12 0 0 0
SMALL
GASTEIGER

@<TRIPOS>ATOM
      1  C          8.3560    0.2390   -2.3490 C.3     1  UNL1        0.1270
      2  C          8.2030   -1.2110   -2.5620 C.2     1  UNL1        0.3030
      3  O          9.2290   -1.9070   -2.7920 O.2     1  UNL1       -0.2520
      4  O          6.9540   -1.8460   -2.5160 O.3     1  UNL1       -0.4810
      5  H          6.6300   -2.3360   -3.3390 H       1  UNL1        0.2960
      6  C          8.7520    0.5710   -0.9210 C.3     1  UNL1        0.0470
      7  C          7.5780    0.4990   -0.0120 C.2     1  UNL1       -0.0470
      8  C          6.4870    1.3360   -0.1970 C.2     1  UNL1        0.0040
      9  C          7.5090   -0.3810    1.0530 C.2     1  UNL1        0.0040
     10  C          5.3900    1.3000    0.6330 C.2     1  UNL1        0.0000
     11  C          6.4100   -0.4150    1.8830 C.2     1  UNL1        0.0000
     12  C          5.3320    0.4200    1.6940 C.2     1  UNL1        0.0000
@<TRIPOS>BOND
     1     5     4    1
     2     3     2    2
     3     2     4    1
     4     2     1    1
     5     1     6    1
     6     6     7    1
     7     8     7    2
     8     8    10    1
     9     7     9    1
    10    10    12    2
    11     9    11    2
    12    12    11    1
