@<TRIPOS>MOLECULE
/home/cewinharhar/GITHUB/reincatalyze/data/processed/docking_pred/2023-Apr-25-2248_maxeplen10_maxtrainstep1000_exh16_gamma099_lrac3e-4_lrcr1e-3/f15420a79f585431148ea344134f913ab78e73cd_ligand_2.pdbqt
 12 12 0 0 0
SMALL
GASTEIGER

@<TRIPOS>ATOM
      1  C          8.5060    0.6970   -1.6010 C.3     1  UNL1        0.1270
      2  C          9.6840    0.3060   -0.8060 C.2     1  UNL1        0.3030
      3  O          9.5320   -0.4860    0.1640 O.2     1  UNL1       -0.2520
      4  O         10.9710    0.7820   -1.0930 O.3     1  UNL1       -0.4810
      5  H         11.5760    1.0330   -0.3230 H       1  UNL1        0.2960
      6  C          7.3310   -0.2390   -1.3840 C.3     1  UNL1        0.0470
      7  C          6.4300    0.2740   -0.3190 C.2     1  UNL1       -0.0470
      8  C          5.7930    1.4990   -0.4600 C.2     1  UNL1        0.0040
      9  C          6.1870   -0.4180    0.8530 C.2     1  UNL1        0.0040
     10  C          4.9620    2.0060    0.5120 C.2     1  UNL1        0.0000
     11  C          5.3540    0.0910    1.8260 C.2     1  UNL1        0.0000
     12  C          4.7270    1.3080    1.6800 C.2     1  UNL1        0.0000
@<TRIPOS>BOND
     1     1     6    1
     2     1     2    1
     3     6     7    1
     4     4     2    1
     5     4     5    1
     6     2     3    2
     7     8     7    2
     8     8    10    1
     9     7     9    1
    10    10    12    2
    11     9    11    2
    12    12    11    1
