@<TRIPOS>MOLECULE
/home/cewinharhar/GITHUB/reincatalyze/data/processed/docking_pred/2023-Apr-25-2248_maxeplen10_maxtrainstep1000_exh16_gamma099_lrac3e-4_lrcr1e-3/f1acaff2cf7a86b9bbc999bfeecc6491fc2a0881_ligand_2.pdbqt
 12 12 0 0 0
SMALL
GASTEIGER

@<TRIPOS>ATOM
      1  C          8.6090    0.6600   -1.8510 C.3     1  UNL1        0.1270
      2  C          9.8390   -0.0490   -1.4570 C.2     1  UNL1        0.3030
      3  O          9.9790   -1.2590   -1.7820 O.2     1  UNL1       -0.2520
      4  O         10.8650    0.5780   -0.7340 O.3     1  UNL1       -0.4810
      5  H         11.2850    1.4140   -1.1170 H       1  UNL1        0.2960
      6  C          7.3840   -0.2340   -1.7790 C.3     1  UNL1        0.0470
      7  C          6.6180    0.0110   -0.5290 C.2     1  UNL1       -0.0470
      8  C          5.9180    1.1960   -0.3490 C.2     1  UNL1        0.0040
      9  C          6.5670   -0.9010    0.5090 C.2     1  UNL1        0.0040
     10  C          5.2080    1.4570    0.8000 C.2     1  UNL1        0.0000
     11  C          5.8550   -0.6370    1.6600 C.2     1  UNL1        0.0000
     12  C          5.1640    0.5410    1.8310 C.2     1  UNL1        0.0000
@<TRIPOS>BOND
     1     1     6    1
     2     1     2    1
     3     3     2    2
     4     6     7    1
     5     2     4    1
     6     5     4    1
     7     7     8    2
     8     7     9    1
     9     8    10    1
    10     9    11    2
    11    10    12    2
    12    11    12    1
