MODEL 1
REMARK VINA RESULT:      -6.9      0.000      0.000
REMARK SMILES O=C(O)CCc1ccccc1
REMARK SMILES IDX 4 1 2 2 1 3 3 4 5 6 6 7 7 8 11 9 8 10 10 11 9 12
REMARK H PARENT 3 5
REMARK Flexibility Score: inf
ROOT
ATOM      1  C   UNL     1       8.492  -0.736  -2.025  1.00  0.00     0.127 C 
ENDROOT
BRANCH   1   2
ATOM      2  C   UNL     1       8.445  -1.951  -2.858  1.00  0.00     0.303 C 
ATOM      3  O   UNL     1       7.324  -2.423  -3.190  1.00  0.00    -0.252 OA
BRANCH   2   4
ATOM      4  O   UNL     1       9.607  -2.602  -3.296  1.00  0.00    -0.481 OA
ATOM      5  H   UNL     1      10.113  -3.182  -2.641  1.00  0.00     0.296 HD
ENDBRANCH   2   4
ENDBRANCH   1   2
BRANCH   1   6
ATOM      6  C   UNL     1       7.198   0.056  -2.093  1.00  0.00     0.047 C 
BRANCH   6   7
ATOM      7  C   UNL     1       6.566   0.161  -0.752  1.00  0.00    -0.047 A 
ATOM      8  C   UNL     1       6.635  -0.894   0.147  1.00  0.00     0.004 A 
ATOM      9  C   UNL     1       5.880   1.286  -0.334  1.00  0.00     0.004 A 
ATOM     10  C   UNL     1       6.051  -0.833   1.392  1.00  0.00     0.000 A 
ATOM     11  C   UNL     1       5.296   1.346   0.913  1.00  0.00     0.000 A 
ATOM     12  C   UNL     1       5.367   0.295   1.799  1.00  0.00     0.000 A 
ENDBRANCH   6   7
ENDBRANCH   1   6
TORSDOF 4
ENDMDL
MODEL 2
REMARK VINA RESULT:      -6.8      0.266      1.445
REMARK SMILES O=C(O)CCc1ccccc1
REMARK SMILES IDX 4 1 2 2 1 3 3 4 5 6 6 7 7 8 11 9 8 10 10 11 9 12
REMARK H PARENT 3 5
REMARK Flexibility Score: inf
ROOT
ATOM      1  C   UNL     1       8.554  -0.550  -2.088  1.00  0.00     0.127 C 
ENDROOT
BRANCH   1   2
ATOM      2  C   UNL     1       8.735  -1.885  -2.687  1.00  0.00     0.303 C 
ATOM      3  O   UNL     1       7.717  -2.552  -3.016  1.00  0.00    -0.252 OA
BRANCH   2   4
ATOM      4  O   UNL     1      10.004  -2.440  -2.906  1.00  0.00    -0.481 OA
ATOM      5  H   UNL     1      10.608  -2.596  -2.110  1.00  0.00     0.296 HD
ENDBRANCH   2   4
ENDBRANCH   1   2
BRANCH   1   6
ATOM      6  C   UNL     1       7.111  -0.083  -2.155  1.00  0.00     0.047 C 
BRANCH   6   7
ATOM      7  C   UNL     1       6.530   0.048  -0.794  1.00  0.00    -0.047 A 
ATOM      8  C   UNL     1       5.859   1.203  -0.419  1.00  0.00     0.004 A 
ATOM      9  C   UNL     1       6.630  -0.947   0.161  1.00  0.00     0.004 A 
ATOM     10  C   UNL     1       5.319   1.358   0.837  1.00  0.00     0.000 A 
ATOM     11  C   UNL     1       6.088  -0.790   1.419  1.00  0.00     0.000 A 
ATOM     12  C   UNL     1       5.425   0.359   1.784  1.00  0.00     0.000 A 
ENDBRANCH   6   7
ENDBRANCH   1   6
TORSDOF 4
ENDMDL
MODEL 3
REMARK VINA RESULT:      -6.6      3.318      5.164
REMARK SMILES O=C(O)CCc1ccccc1
REMARK SMILES IDX 4 1 2 2 1 3 3 4 5 6 6 7 7 8 11 9 8 10 10 11 9 12
REMARK H PARENT 3 5
REMARK Flexibility Score: inf
ROOT
ATOM      1  C   UNL     1       5.004   1.789   0.719  1.00  0.00     0.127 C 
ENDROOT
BRANCH   1   2
ATOM      2  C   UNL     1       4.488   1.117   1.924  1.00  0.00     0.303 C 
ATOM      3  O   UNL     1       5.188   0.225   2.475  1.00  0.00    -0.252 OA
BRANCH   2   4
ATOM      4  O   UNL     1       3.241   1.436   2.483  1.00  0.00    -0.481 OA
ATOM      5  H   UNL     1       2.444   0.860   2.247  1.00  0.00     0.296 HD
ENDBRANCH   2   4
ENDBRANCH   1   2
BRANCH   1   6
ATOM      6  C   UNL     1       6.514   1.946   0.751  1.00  0.00     0.047 C 
BRANCH   6   7
ATOM      7  C   UNL     1       7.154   1.166  -0.339  1.00  0.00    -0.047 A 
ATOM      8  C   UNL     1       6.406   0.298  -1.122  1.00  0.00     0.004 A 
ATOM      9  C   UNL     1       8.505   1.249  -0.626  1.00  0.00     0.004 A 
ATOM     10  C   UNL     1       6.971  -0.447  -2.132  1.00  0.00     0.000 A 
ATOM     11  C   UNL     1       9.069   0.503  -1.638  1.00  0.00     0.000 A 
ATOM     12  C   UNL     1       8.321  -0.357  -2.409  1.00  0.00     0.000 A 
ENDBRANCH   6   7
ENDBRANCH   1   6
TORSDOF 4
ENDMDL
MODEL 4
REMARK VINA RESULT:      -6.6      1.598      1.885
REMARK SMILES O=C(O)CCc1ccccc1
REMARK SMILES IDX 4 1 2 2 1 3 3 4 5 6 6 7 7 8 11 9 8 10 10 11 9 12
REMARK H PARENT 3 5
REMARK Flexibility Score: inf
ROOT
ATOM      1  C   UNL     1       8.219   0.380  -2.334  1.00  0.00     0.127 C 
ENDROOT
BRANCH   1   2
ATOM      2  C   UNL     1       9.518   0.095  -1.700  1.00  0.00     0.303 C 
ATOM      3  O   UNL     1       9.949  -1.090  -1.693  1.00  0.00    -0.252 OA
BRANCH   2   4
ATOM      4  O   UNL     1      10.295   1.098  -1.103  1.00  0.00    -0.481 OA
ATOM      5  H   UNL     1      10.236   2.039  -1.470  1.00  0.00     0.296 HD
ENDBRANCH   2   4
ENDBRANCH   1   2
BRANCH   1   6
ATOM      6  C   UNL     1       7.142  -0.599  -1.903  1.00  0.00     0.047 C 
BRANCH   6   7
ATOM      7  C   UNL     1       6.504  -0.164  -0.633  1.00  0.00    -0.047 A 
ATOM      8  C   UNL     1       6.488  -1.000   0.474  1.00  0.00     0.004 A 
ATOM      9  C   UNL     1       5.894   1.068  -0.487  1.00  0.00     0.004 A 
ATOM     10  C   UNL     1       5.896  -0.630   1.660  1.00  0.00     0.000 A 
ATOM     11  C   UNL     1       5.301   1.437   0.702  1.00  0.00     0.000 A 
ATOM     12  C   UNL     1       5.288   0.602   1.796  1.00  0.00     0.000 A 
ENDBRANCH   6   7
ENDBRANCH   1   6
TORSDOF 4
ENDMDL
MODEL 5
REMARK VINA RESULT:      -6.6      1.590      2.350
REMARK SMILES O=C(O)CCc1ccccc1
REMARK SMILES IDX 4 1 2 2 1 3 3 4 5 6 6 7 7 8 11 9 8 10 10 11 9 12
REMARK H PARENT 3 5
REMARK Flexibility Score: inf
ROOT
ATOM      1  C   UNL     1       8.609   0.660  -1.851  1.00  0.00     0.127 C 
ENDROOT
BRANCH   1   2
ATOM      2  C   UNL     1       9.839  -0.049  -1.457  1.00  0.00     0.303 C 
ATOM      3  O   UNL     1       9.979  -1.259  -1.782  1.00  0.00    -0.252 OA
BRANCH   2   4
ATOM      4  O   UNL     1      10.865   0.578  -0.734  1.00  0.00    -0.481 OA
ATOM      5  H   UNL     1      11.285   1.414  -1.117  1.00  0.00     0.296 HD
ENDBRANCH   2   4
ENDBRANCH   1   2
BRANCH   1   6
ATOM      6  C   UNL     1       7.384  -0.234  -1.779  1.00  0.00     0.047 C 
BRANCH   6   7
ATOM      7  C   UNL     1       6.618   0.011  -0.529  1.00  0.00    -0.047 A 
ATOM      8  C   UNL     1       5.918   1.196  -0.349  1.00  0.00     0.004 A 
ATOM      9  C   UNL     1       6.567  -0.901   0.509  1.00  0.00     0.004 A 
ATOM     10  C   UNL     1       5.208   1.457   0.800  1.00  0.00     0.000 A 
ATOM     11  C   UNL     1       5.855  -0.637   1.660  1.00  0.00     0.000 A 
ATOM     12  C   UNL     1       5.164   0.541   1.831  1.00  0.00     0.000 A 
ENDBRANCH   6   7
ENDBRANCH   1   6
TORSDOF 4
ENDMDL
