@<TRIPOS>MOLECULE
/home/cewinharhar/GITHUB/reincatalyze/data/processed/docking_pred/2023-Apr-25-2248_maxeplen10_maxtrainstep1000_exh16_gamma099_lrac3e-4_lrcr1e-3/f1acaff2cf7a86b9bbc999bfeecc6491fc2a0881_ligand_2.pdbqt
 12 12 0 0 0
SMALL
GASTEIGER

@<TRIPOS>ATOM
      1  C          8.4920   -0.7360   -2.0250 C.3     1  UNL1        0.1270
      2  C          8.4450   -1.9510   -2.8580 C.2     1  UNL1        0.3030
      3  O          7.3240   -2.4230   -3.1900 O.2     1  UNL1       -0.2520
      4  O          9.6070   -2.6020   -3.2960 O.3     1  UNL1       -0.4810
      5  H         10.1130   -3.1820   -2.6410 H       1  UNL1        0.2960
      6  C          7.1980    0.0560   -2.0930 C.3     1  UNL1        0.0470
      7  C          6.5660    0.1610   -0.7520 C.2     1  UNL1       -0.0470
      8  C          6.6350   -0.8940    0.1470 C.2     1  UNL1        0.0040
      9  C          5.8800    1.2860   -0.3340 C.2     1  UNL1        0.0040
     10  C          6.0510   -0.8330    1.3920 C.2     1  UNL1        0.0000
     11  C          5.2960    1.3460    0.9130 C.2     1  UNL1        0.0000
     12  C          5.3670    0.2950    1.7990 C.2     1  UNL1        0.0000
@<TRIPOS>BOND
     1     4     2    1
     2     4     5    1
     3     3     2    2
     4     2     1    1
     5     6     1    1
     6     6     7    1
     7     7     9    2
     8     7     8    1
     9     9    11    1
    10     8    10    2
    11    11    12    2
    12    10    12    1
