@<TRIPOS>MOLECULE
/home/cewinharhar/GITHUB/reincatalyze/data/processed/docking_pred/2023-Apr-25-2248_maxeplen10_maxtrainstep1000_exh16_gamma099_lrac3e-4_lrcr1e-3/f1acaff2cf7a86b9bbc999bfeecc6491fc2a0881_ligand_2.pdbqt
 12 12 0 0 0
SMALL
GASTEIGER

@<TRIPOS>ATOM
      1  C          5.0040    1.7890    0.7190 C.3     1  UNL1        0.1270
      2  C          4.4880    1.1170    1.9240 C.2     1  UNL1        0.3030
      3  O          5.1880    0.2250    2.4750 O.2     1  UNL1       -0.2520
      4  O          3.2410    1.4360    2.4830 O.3     1  UNL1       -0.4810
      5  H          2.4440    0.8600    2.2470 H       1  UNL1        0.2960
      6  C          6.5140    1.9460    0.7510 C.3     1  UNL1        0.0470
      7  C          7.1540    1.1660   -0.3390 C.2     1  UNL1       -0.0470
      8  C          6.4060    0.2980   -1.1220 C.2     1  UNL1        0.0040
      9  C          8.5050    1.2490   -0.6260 C.2     1  UNL1        0.0040
     10  C          6.9710   -0.4470   -2.1320 C.2     1  UNL1        0.0000
     11  C          9.0690    0.5030   -1.6380 C.2     1  UNL1        0.0000
     12  C          8.3210   -0.3570   -2.4090 C.2     1  UNL1        0.0000
@<TRIPOS>BOND
     1    12    10    2
     2    12    11    1
     3    10     8    1
     4    11     9    2
     5     8     7    2
     6     9     7    1
     7     7     6    1
     8     1     6    1
     9     1     2    1
    10     2     3    2
    11     2     4    1
    12     5     4    1
