@<TRIPOS>MOLECULE
/home/cewinharhar/GITHUB/reincatalyze/data/processed/docking_pred/2023-Apr-25-2248_maxeplen10_maxtrainstep1000_exh16_gamma099_lrac3e-4_lrcr1e-3/f1acaff2cf7a86b9bbc999bfeecc6491fc2a0881_ligand_2.pdbqt
 12 12 0 0 0
SMALL
GASTEIGER

@<TRIPOS>ATOM
      1  C          8.2190    0.3800   -2.3340 C.3     1  UNL1        0.1270
      2  C          9.5180    0.0950   -1.7000 C.2     1  UNL1        0.3030
      3  O          9.9490   -1.0900   -1.6930 O.2     1  UNL1       -0.2520
      4  O         10.2950    1.0980   -1.1030 O.3     1  UNL1       -0.4810
      5  H         10.2360    2.0390   -1.4700 H       1  UNL1        0.2960
      6  C          7.1420   -0.5990   -1.9030 C.3     1  UNL1        0.0470
      7  C          6.5040   -0.1640   -0.6330 C.2     1  UNL1       -0.0470
      8  C          6.4880   -1.0000    0.4740 C.2     1  UNL1        0.0040
      9  C          5.8940    1.0680   -0.4870 C.2     1  UNL1        0.0040
     10  C          5.8960   -0.6300    1.6600 C.2     1  UNL1        0.0000
     11  C          5.3010    1.4370    0.7020 C.2     1  UNL1        0.0000
     12  C          5.2880    0.6020    1.7960 C.2     1  UNL1        0.0000
@<TRIPOS>BOND
     1     1     6    1
     2     1     2    1
     3     6     7    1
     4     2     3    2
     5     2     4    1
     6     5     4    1
     7     7     9    2
     8     7     8    1
     9     9    11    1
    10     8    10    2
    11    11    12    2
    12    10    12    1
