@<TRIPOS>MOLECULE
/home/cewinharhar/GITHUB/reincatalyze/data/processed/docking_pred/2023-Apr-25-2248_maxeplen10_maxtrainstep1000_exh16_gamma099_lrac3e-4_lrcr1e-3/f1acaff2cf7a86b9bbc999bfeecc6491fc2a0881_ligand_2.pdbqt
 12 12 0 0 0
SMALL
GASTEIGER

@<TRIPOS>ATOM
      1  C          8.5540   -0.5500   -2.0880 C.3     1  UNL1        0.1270
      2  C          8.7350   -1.8850   -2.6870 C.2     1  UNL1        0.3030
      3  O          7.7170   -2.5520   -3.0160 O.2     1  UNL1       -0.2520
      4  O         10.0040   -2.4400   -2.9060 O.3     1  UNL1       -0.4810
      5  H         10.6080   -2.5960   -2.1100 H       1  UNL1        0.2960
      6  C          7.1110   -0.0830   -2.1550 C.3     1  UNL1        0.0470
      7  C          6.5300    0.0480   -0.7940 C.2     1  UNL1       -0.0470
      8  C          5.8590    1.2030   -0.4190 C.2     1  UNL1        0.0040
      9  C          6.6300   -0.9470    0.1610 C.2     1  UNL1        0.0040
     10  C          5.3190    1.3580    0.8370 C.2     1  UNL1        0.0000
     11  C          6.0880   -0.7900    1.4190 C.2     1  UNL1        0.0000
     12  C          5.4250    0.3590    1.7840 C.2     1  UNL1        0.0000
@<TRIPOS>BOND
     1     3     2    2
     2     4     2    1
     3     4     5    1
     4     2     1    1
     5     6     1    1
     6     6     7    1
     7     7     8    2
     8     7     9    1
     9     8    10    1
    10     9    11    2
    11    10    12    2
    12    11    12    1
