@<TRIPOS>MOLECULE
/home/cewinharhar/GITHUB/reincatalyze/data/processed/docking_pred/2023-Apr-25-2248_maxeplen10_maxtrainstep1000_exh16_gamma099_lrac3e-4_lrcr1e-3/f32d20faebe3d2be17d1bcf3c85c7c889e58fe23_ligand_2.pdbqt
 12 12 0 0 0
SMALL
GASTEIGER

@<TRIPOS>ATOM
      1  C          8.4310   -0.6440   -2.1570 C.3     1  UNL1        0.1270
      2  C          8.4510   -1.9110   -2.9100 C.2     1  UNL1        0.3030
      3  O          9.5520   -2.5010   -3.0860 O.2     1  UNL1       -0.2520
      4  O          7.2860   -2.4850   -3.4370 O.3     1  UNL1       -0.4810
      5  H          6.3980   -2.2570   -3.0100 H       1  UNL1        0.2960
      6  C          7.0540   -0.0060   -2.1440 C.3     1  UNL1        0.0470
      7  C          6.5040    0.0460   -0.7640 C.2     1  UNL1       -0.0470
      8  C          5.8480    1.1790   -0.3060 C.2     1  UNL1        0.0040
      9  C          6.6190   -1.0050    0.1270 C.2     1  UNL1        0.0040
     10  C          5.3370    1.2620    0.9690 C.2     1  UNL1        0.0000
     11  C          6.1060   -0.9210    1.4040 C.2     1  UNL1        0.0000
     12  C          5.4580    0.2080    1.8520 C.2     1  UNL1        0.0000
@<TRIPOS>BOND
     1     4     5    1
     2     4     2    1
     3     3     2    2
     4     2     1    1
     5     1     6    1
     6     6     7    1
     7     7     8    2
     8     7     9    1
     9     8    10    1
    10     9    11    2
    11    10    12    2
    12    11    12    1
