@<TRIPOS>MOLECULE
/home/cewinharhar/GITHUB/reincatalyze/data/processed/docking_pred/2023-Apr-25-2248_maxeplen10_maxtrainstep1000_exh16_gamma099_lrac3e-4_lrcr1e-3/f32d20faebe3d2be17d1bcf3c85c7c889e58fe23_ligand_2.pdbqt
 12 12 0 0 0
SMALL
GASTEIGER

@<TRIPOS>ATOM
      1  C          5.4970    2.9180    0.1000 C.3     1  UNL1        0.1270
      2  C          6.2740    3.9060    0.8680 C.2     1  UNL1        0.3030
      3  O          6.9470    4.7730    0.2470 O.2     1  UNL1       -0.2520
      4  O          6.2920    3.9180    2.2710 O.3     1  UNL1       -0.4810
      5  H          6.7220    3.1420    2.7550 H       1  UNL1        0.2960
      6  C          4.8810    1.8540    0.9910 C.3     1  UNL1        0.0470
      7  C          5.7160    0.6240    1.0060 C.2     1  UNL1       -0.0470
      8  C          6.5060    0.2920   -0.0850 C.2     1  UNL1        0.0040
      9  C          5.7450   -0.2480    2.0790 C.2     1  UNL1        0.0040
     10  C          7.2820   -0.8450   -0.1060 C.2     1  UNL1        0.0000
     11  C          6.5220   -1.3860    2.0560 C.2     1  UNL1        0.0000
     12  C          7.3030   -1.7090    0.9700 C.2     1  UNL1        0.0000
@<TRIPOS>BOND
     1    10     8    1
     2    10    12    2
     3     8     7    2
     4     1     2    1
     5     1     6    1
     6     3     2    2
     7     2     4    1
     8    12    11    1
     9     6     7    1
    10     7     9    1
    11    11     9    2
    12     4     5    1
