@<TRIPOS>MOLECULE
/home/cewinharhar/GITHUB/reincatalyze/data/processed/docking_pred/2023-Apr-25-2248_maxeplen10_maxtrainstep1000_exh16_gamma099_lrac3e-4_lrcr1e-3/f32d20faebe3d2be17d1bcf3c85c7c889e58fe23_ligand_2.pdbqt
 12 12 0 0 0
SMALL
GASTEIGER

@<TRIPOS>ATOM
      1  C          8.2510   -0.9940   -1.8210 C.3     1  UNL1        0.1270
      2  C          8.3960   -2.0550   -2.8340 C.2     1  UNL1        0.3030
      3  O          9.5450   -2.5070   -3.0870 O.2     1  UNL1       -0.2520
      4  O          7.2970   -2.5810   -3.5270 O.3     1  UNL1       -0.4810
      5  H          7.4680   -3.2370   -4.2780 H       1  UNL1        0.2960
      6  C          7.4130   -1.4420   -0.6370 C.3     1  UNL1        0.0470
      7  C          6.5810   -0.3240   -0.1210 C.2     1  UNL1       -0.0470
      8  C          6.0980   -0.3440    1.1800 C.2     1  UNL1        0.0040
      9  C          6.2380    0.7720   -0.8910 C.2     1  UNL1        0.0040
     10  C          5.3160    0.6700    1.6840 C.2     1  UNL1        0.0000
     11  C          5.4550    1.7870   -0.3840 C.2     1  UNL1        0.0000
     12  C          4.9790    1.7600    0.9070 C.2     1  UNL1        0.0000
@<TRIPOS>BOND
     1     5     4    1
     2     4     2    1
     3     3     2    2
     4     2     1    1
     5     1     6    1
     6     9    11    1
     7     9     7    2
     8     6     7    1
     9    11    12    2
    10     7     8    1
    11    12    10    1
    12     8    10    2
