@<TRIPOS>MOLECULE
/home/cewinharhar/GITHUB/reincatalyze/data/processed/docking_pred/2023-Apr-25-2248_maxeplen10_maxtrainstep1000_exh16_gamma099_lrac3e-4_lrcr1e-3/f32d20faebe3d2be17d1bcf3c85c7c889e58fe23_ligand_2.pdbqt
 12 12 0 0 0
SMALL
GASTEIGER

@<TRIPOS>ATOM
      1  C          8.4280   -0.6800   -2.0950 C.3     1  UNL1        0.1270
      2  C          8.4360   -1.9250   -2.8830 C.2     1  UNL1        0.3030
      3  O          9.5300   -2.5250   -3.0690 O.2     1  UNL1       -0.2520
      4  O          7.2670   -2.4690   -3.4340 O.3     1  UNL1       -0.4810
      5  H          6.6670   -3.0270   -2.8400 H       1  UNL1        0.2960
      6  C          7.0810    0.0180   -2.1390 C.3     1  UNL1        0.0470
      7  C          6.5020    0.1450   -0.7770 C.2     1  UNL1       -0.0470
      8  C          6.6280   -0.8850    0.1450 C.2     1  UNL1        0.0040
      9  C          5.8090    1.2670   -0.3590 C.2     1  UNL1        0.0040
     10  C          6.0940   -0.8020    1.4100 C.2     1  UNL1        0.0000
     11  C          5.2750    1.3480    0.9090 C.2     1  UNL1        0.0000
     12  C          5.4040    0.3210    1.8170 C.2     1  UNL1        0.0000
@<TRIPOS>BOND
     1     4     2    1
     2     4     5    1
     3     3     2    2
     4     2     1    1
     5     6     1    1
     6     6     7    1
     7     7     9    2
     8     7     8    1
     9     9    11    1
    10     8    10    2
    11    11    12    2
    12    10    12    1
