@<TRIPOS>MOLECULE
/home/cewinharhar/GITHUB/reincatalyze/data/processed/docking_pred/2023-Apr-25-2248_maxeplen10_maxtrainstep1000_exh16_gamma099_lrac3e-4_lrcr1e-3/f32d20faebe3d2be17d1bcf3c85c7c889e58fe23_ligand_2.pdbqt
 12 12 0 0 0
SMALL
GASTEIGER

@<TRIPOS>ATOM
      1  C          4.9900    1.8090    0.7050 C.3     1  UNL1        0.1270
      2  C          4.4780    1.1370    1.9120 C.2     1  UNL1        0.3030
      3  O          5.1800    0.2440    2.4600 O.2     1  UNL1       -0.2520
      4  O          3.2350    1.4570    2.4760 O.3     1  UNL1       -0.4810
      5  H          3.0520    1.1820    3.4320 H       1  UNL1        0.2960
      6  C          6.5000    1.9630    0.7310 C.3     1  UNL1        0.0470
      7  C          7.1370    1.1590   -0.3450 C.2     1  UNL1       -0.0470
      8  C          6.3820    0.2860   -1.1160 C.2     1  UNL1        0.0040
      9  C          8.4880    1.2250   -0.6290 C.2     1  UNL1        0.0040
     10  C          6.9430   -0.4800   -2.1120 C.2     1  UNL1        0.0000
     11  C          9.0490    0.4570   -1.6270 C.2     1  UNL1        0.0000
     12  C          8.2940   -0.4080   -2.3870 C.2     1  UNL1        0.0000
@<TRIPOS>BOND
     1    12    10    2
     2    12    11    1
     3    10     8    1
     4    11     9    2
     5     8     7    2
     6     9     7    1
     7     7     6    1
     8     1     6    1
     9     1     2    1
    10     2     3    2
    11     2     4    1
    12     4     5    1
