MODEL 1
REMARK VINA RESULT:      -7.3      0.000      0.000
REMARK SMILES O=C(O)CCc1ccccc1
REMARK SMILES IDX 4 1 2 2 1 3 3 4 5 6 6 7 7 8 11 9 8 10 10 11 9 12
REMARK H PARENT 3 5
REMARK Flexibility Score: inf
ROOT
ATOM      1  C   UNL     1       8.428  -0.680  -2.095  1.00  0.00     0.127 C 
ENDROOT
BRANCH   1   2
ATOM      2  C   UNL     1       8.436  -1.925  -2.883  1.00  0.00     0.303 C 
ATOM      3  O   UNL     1       9.530  -2.525  -3.069  1.00  0.00    -0.252 OA
BRANCH   2   4
ATOM      4  O   UNL     1       7.267  -2.469  -3.434  1.00  0.00    -0.481 OA
ATOM      5  H   UNL     1       6.667  -3.027  -2.840  1.00  0.00     0.296 HD
ENDBRANCH   2   4
ENDBRANCH   1   2
BRANCH   1   6
ATOM      6  C   UNL     1       7.081   0.018  -2.139  1.00  0.00     0.047 C 
BRANCH   6   7
ATOM      7  C   UNL     1       6.502   0.145  -0.777  1.00  0.00    -0.047 A 
ATOM      8  C   UNL     1       6.628  -0.885   0.145  1.00  0.00     0.004 A 
ATOM      9  C   UNL     1       5.809   1.267  -0.359  1.00  0.00     0.004 A 
ATOM     10  C   UNL     1       6.094  -0.802   1.410  1.00  0.00     0.000 A 
ATOM     11  C   UNL     1       5.275   1.348   0.909  1.00  0.00     0.000 A 
ATOM     12  C   UNL     1       5.404   0.321   1.817  1.00  0.00     0.000 A 
ENDBRANCH   6   7
ENDBRANCH   1   6
TORSDOF 4
ENDMDL
MODEL 2
REMARK VINA RESULT:      -7.3      0.092      1.423
REMARK SMILES O=C(O)CCc1ccccc1
REMARK SMILES IDX 4 1 2 2 1 3 3 4 5 6 6 7 7 8 11 9 8 10 10 11 9 12
REMARK H PARENT 3 5
REMARK Flexibility Score: inf
ROOT
ATOM      1  C   UNL     1       8.431  -0.644  -2.157  1.00  0.00     0.127 C 
ENDROOT
BRANCH   1   2
ATOM      2  C   UNL     1       8.451  -1.911  -2.910  1.00  0.00     0.303 C 
ATOM      3  O   UNL     1       9.552  -2.501  -3.086  1.00  0.00    -0.252 OA
BRANCH   2   4
ATOM      4  O   UNL     1       7.286  -2.485  -3.437  1.00  0.00    -0.481 OA
ATOM      5  H   UNL     1       6.398  -2.257  -3.010  1.00  0.00     0.296 HD
ENDBRANCH   2   4
ENDBRANCH   1   2
BRANCH   1   6
ATOM      6  C   UNL     1       7.054  -0.006  -2.144  1.00  0.00     0.047 C 
BRANCH   6   7
ATOM      7  C   UNL     1       6.504   0.046  -0.764  1.00  0.00    -0.047 A 
ATOM      8  C   UNL     1       5.848   1.179  -0.306  1.00  0.00     0.004 A 
ATOM      9  C   UNL     1       6.619  -1.005   0.127  1.00  0.00     0.004 A 
ATOM     10  C   UNL     1       5.337   1.262   0.969  1.00  0.00     0.000 A 
ATOM     11  C   UNL     1       6.106  -0.921   1.404  1.00  0.00     0.000 A 
ATOM     12  C   UNL     1       5.458   0.208   1.852  1.00  0.00     0.000 A 
ENDBRANCH   6   7
ENDBRANCH   1   6
TORSDOF 4
ENDMDL
MODEL 3
REMARK VINA RESULT:      -7.2      0.652      1.190
REMARK SMILES O=C(O)CCc1ccccc1
REMARK SMILES IDX 4 1 2 2 1 3 3 4 5 6 6 7 7 8 11 9 8 10 10 11 9 12
REMARK H PARENT 3 5
REMARK Flexibility Score: inf
ROOT
ATOM      1  C   UNL     1       8.251  -0.994  -1.821  1.00  0.00     0.127 C 
ENDROOT
BRANCH   1   2
ATOM      2  C   UNL     1       8.396  -2.055  -2.834  1.00  0.00     0.303 C 
ATOM      3  O   UNL     1       9.545  -2.507  -3.087  1.00  0.00    -0.252 OA
BRANCH   2   4
ATOM      4  O   UNL     1       7.297  -2.581  -3.527  1.00  0.00    -0.481 OA
ATOM      5  H   UNL     1       7.468  -3.237  -4.278  1.00  0.00     0.296 HD
ENDBRANCH   2   4
ENDBRANCH   1   2
BRANCH   1   6
ATOM      6  C   UNL     1       7.413  -1.442  -0.637  1.00  0.00     0.047 C 
BRANCH   6   7
ATOM      7  C   UNL     1       6.581  -0.324  -0.121  1.00  0.00    -0.047 A 
ATOM      8  C   UNL     1       6.098  -0.344   1.180  1.00  0.00     0.004 A 
ATOM      9  C   UNL     1       6.238   0.772  -0.891  1.00  0.00     0.004 A 
ATOM     10  C   UNL     1       5.316   0.670   1.684  1.00  0.00     0.000 A 
ATOM     11  C   UNL     1       5.455   1.787  -0.384  1.00  0.00     0.000 A 
ATOM     12  C   UNL     1       4.979   1.760   0.907  1.00  0.00     0.000 A 
ENDBRANCH   6   7
ENDBRANCH   1   6
TORSDOF 4
ENDMDL
MODEL 4
REMARK VINA RESULT:      -6.8      3.385      5.074
REMARK SMILES O=C(O)CCc1ccccc1
REMARK SMILES IDX 4 1 2 2 1 3 3 4 5 6 6 7 7 8 11 9 8 10 10 11 9 12
REMARK H PARENT 3 5
REMARK Flexibility Score: inf
ROOT
ATOM      1  C   UNL     1       4.990   1.809   0.705  1.00  0.00     0.127 C 
ENDROOT
BRANCH   1   2
ATOM      2  C   UNL     1       4.478   1.137   1.912  1.00  0.00     0.303 C 
ATOM      3  O   UNL     1       5.180   0.244   2.460  1.00  0.00    -0.252 OA
BRANCH   2   4
ATOM      4  O   UNL     1       3.235   1.457   2.476  1.00  0.00    -0.481 OA
ATOM      5  H   UNL     1       3.052   1.182   3.432  1.00  0.00     0.296 HD
ENDBRANCH   2   4
ENDBRANCH   1   2
BRANCH   1   6
ATOM      6  C   UNL     1       6.500   1.963   0.731  1.00  0.00     0.047 C 
BRANCH   6   7
ATOM      7  C   UNL     1       7.137   1.159  -0.345  1.00  0.00    -0.047 A 
ATOM      8  C   UNL     1       6.382   0.286  -1.116  1.00  0.00     0.004 A 
ATOM      9  C   UNL     1       8.488   1.225  -0.629  1.00  0.00     0.004 A 
ATOM     10  C   UNL     1       6.943  -0.480  -2.112  1.00  0.00     0.000 A 
ATOM     11  C   UNL     1       9.049   0.457  -1.627  1.00  0.00     0.000 A 
ATOM     12  C   UNL     1       8.294  -0.408  -2.387  1.00  0.00     0.000 A 
ENDBRANCH   6   7
ENDBRANCH   1   6
TORSDOF 4
ENDMDL
MODEL 5
REMARK VINA RESULT:      -6.6      3.831      5.032
REMARK SMILES O=C(O)CCc1ccccc1
REMARK SMILES IDX 4 1 2 2 1 3 3 4 5 6 6 7 7 8 11 9 8 10 10 11 9 12
REMARK H PARENT 3 5
REMARK Flexibility Score: inf
ROOT
ATOM      1  C   UNL     1       5.497   2.918   0.100  1.00  0.00     0.127 C 
ENDROOT
BRANCH   1   2
ATOM      2  C   UNL     1       6.274   3.906   0.868  1.00  0.00     0.303 C 
ATOM      3  O   UNL     1       6.947   4.773   0.247  1.00  0.00    -0.252 OA
BRANCH   2   4
ATOM      4  O   UNL     1       6.292   3.918   2.271  1.00  0.00    -0.481 OA
ATOM      5  H   UNL     1       6.722   3.142   2.755  1.00  0.00     0.296 HD
ENDBRANCH   2   4
ENDBRANCH   1   2
BRANCH   1   6
ATOM      6  C   UNL     1       4.881   1.854   0.991  1.00  0.00     0.047 C 
BRANCH   6   7
ATOM      7  C   UNL     1       5.716   0.624   1.006  1.00  0.00    -0.047 A 
ATOM      8  C   UNL     1       6.506   0.292  -0.085  1.00  0.00     0.004 A 
ATOM      9  C   UNL     1       5.745  -0.248   2.079  1.00  0.00     0.004 A 
ATOM     10  C   UNL     1       7.282  -0.845  -0.106  1.00  0.00     0.000 A 
ATOM     11  C   UNL     1       6.522  -1.386   2.056  1.00  0.00     0.000 A 
ATOM     12  C   UNL     1       7.303  -1.709   0.970  1.00  0.00     0.000 A 
ENDBRANCH   6   7
ENDBRANCH   1   6
TORSDOF 4
ENDMDL
