@<TRIPOS>MOLECULE
/home/cewinharhar/GITHUB/reincatalyze/data/processed/docking_pred/2023-Apr-25-2248_maxeplen10_maxtrainstep1000_exh16_gamma099_lrac3e-4_lrcr1e-3/f338baa35ded8d3cb3d8a5b9e0cebf8a24c11f6d_ligand_2.pdbqt
 12 12 0 0 0
SMALL
GASTEIGER

@<TRIPOS>ATOM
      1  C          7.4180   -1.5730   -1.9240 C.3     1  UNL1        0.1270
      2  C          8.8010   -1.4230   -2.4100 C.2     1  UNL1        0.3030
      3  O          9.2870   -2.3150   -3.1570 O.2     1  UNL1       -0.2520
      4  O          9.5970   -0.3190   -2.0720 O.3     1  UNL1       -0.4810
      5  H          9.1530    0.5830   -1.9680 H       1  UNL1        0.2960
      6  C          7.3300   -1.4960   -0.4100 C.3     1  UNL1        0.0470
      7  C          6.5150   -0.3300    0.0180 C.2     1  UNL1       -0.0470
      8  C          5.9810   -0.2710    1.2970 C.2     1  UNL1        0.0040
      9  C          6.2390    0.7370   -0.8170 C.2     1  UNL1        0.0040
     10  C          5.2140    0.7900    1.7210 C.2     1  UNL1        0.0000
     11  C          5.4700    1.7990   -0.3920 C.2     1  UNL1        0.0000
     12  C          4.9420    1.8500    0.8790 C.2     1  UNL1        0.0000
@<TRIPOS>BOND
     1     3     2    2
     2     2     4    1
     3     2     1    1
     4     4     5    1
     5     1     6    1
     6     9    11    1
     7     9     7    2
     8     6     7    1
     9    11    12    2
    10     7     8    1
    11    12    10    1
    12     8    10    2
