@<TRIPOS>MOLECULE
/home/cewinharhar/GITHUB/reincatalyze/data/processed/docking_pred/2023-Apr-25-2248_maxeplen10_maxtrainstep1000_exh16_gamma099_lrac3e-4_lrcr1e-3/f338baa35ded8d3cb3d8a5b9e0cebf8a24c11f6d_ligand_2.pdbqt
 12 12 0 0 0
SMALL
GASTEIGER

@<TRIPOS>ATOM
      1  C          5.0260    1.8010    0.7490 C.3     1  UNL1        0.1270
      2  C          4.4840    1.1140    1.9350 C.2     1  UNL1        0.3030
      3  O          5.1630    0.2000    2.4770 O.2     1  UNL1       -0.2520
      4  O          3.2360    1.4420    2.4830 O.3     1  UNL1       -0.4810
      5  H          2.4150    0.9630    2.1370 H       1  UNL1        0.2960
      6  C          6.5420    1.8780    0.7740 C.3     1  UNL1        0.0470
      7  C          7.1350    1.0680   -0.3220 C.2     1  UNL1       -0.0470
      8  C          8.4730    1.2070   -0.6620 C.2     1  UNL1        0.0040
      9  C          6.4020    0.1560   -1.0590 C.2     1  UNL1        0.0040
     10  C          9.0480    0.4800   -1.6780 C.2     1  UNL1        0.0000
     11  C          6.9790   -0.5720   -2.0770 C.2     1  UNL1        0.0000
     12  C          8.3070   -0.4270   -2.4090 C.2     1  UNL1        0.0000
@<TRIPOS>BOND
     1    12    11    2
     2    12    10    1
     3    11     9    1
     4    10     8    2
     5     9     7    2
     6     8     7    1
     7     7     6    1
     8     1     6    1
     9     1     2    1
    10     2     3    2
    11     2     4    1
    12     5     4    1
