MODEL 1
REMARK VINA RESULT:      -7.3      0.000      0.000
REMARK SMILES O=C(O)CCc1ccccc1
REMARK SMILES IDX 4 1 2 2 1 3 3 4 5 6 6 7 7 8 11 9 8 10 10 11 9 12
REMARK H PARENT 3 5
REMARK Flexibility Score: inf
ROOT
ATOM      1  C   UNL     1       8.391  -0.702  -2.058  1.00  0.00     0.127 C 
ENDROOT
BRANCH   1   2
ATOM      2  C   UNL     1       8.388  -1.931  -2.871  1.00  0.00     0.303 C 
ATOM      3  O   UNL     1       7.286  -2.410  -3.253  1.00  0.00    -0.252 OA
BRANCH   2   4
ATOM      4  O   UNL     1       9.572  -2.587  -3.238  1.00  0.00    -0.481 OA
ATOM      5  H   UNL     1      10.153  -2.980  -2.510  1.00  0.00     0.296 HD
ENDBRANCH   2   4
ENDBRANCH   1   2
BRANCH   1   6
ATOM      6  C   UNL     1       7.047   0.004  -2.081  1.00  0.00     0.047 C 
BRANCH   6   7
ATOM      7  C   UNL     1       6.469   0.094  -0.715  1.00  0.00    -0.047 A 
ATOM      8  C   UNL     1       5.783   1.230  -0.310  1.00  0.00     0.004 A 
ATOM      9  C   UNL     1       6.586  -0.922   0.216  1.00  0.00     0.004 A 
ATOM     10  C   UNL     1       5.245   1.348   0.951  1.00  0.00     0.000 A 
ATOM     11  C   UNL     1       6.047  -0.802   1.478  1.00  0.00     0.000 A 
ATOM     12  C   UNL     1       5.369   0.329   1.873  1.00  0.00     0.000 A 
ENDBRANCH   6   7
ENDBRANCH   1   6
TORSDOF 4
ENDMDL
MODEL 2
REMARK VINA RESULT:      -7.2      0.071      1.422
REMARK SMILES O=C(O)CCc1ccccc1
REMARK SMILES IDX 4 1 2 2 1 3 3 4 5 6 6 7 7 8 11 9 8 10 10 11 9 12
REMARK H PARENT 3 5
REMARK Flexibility Score: inf
ROOT
ATOM      1  C   UNL     1       8.385  -0.657  -2.120  1.00  0.00     0.127 C 
ENDROOT
BRANCH   1   2
ATOM      2  C   UNL     1       8.396  -1.911  -2.893  1.00  0.00     0.303 C 
ATOM      3  O   UNL     1       7.298  -2.424  -3.244  1.00  0.00    -0.252 OA
BRANCH   2   4
ATOM      4  O   UNL     1       9.587  -2.557  -3.256  1.00  0.00    -0.481 OA
ATOM      5  H   UNL     1       9.891  -2.505  -4.218  1.00  0.00     0.296 HD
ENDBRANCH   2   4
ENDBRANCH   1   2
BRANCH   1   6
ATOM      6  C   UNL     1       7.021   0.009  -2.124  1.00  0.00     0.047 C 
BRANCH   6   7
ATOM      7  C   UNL     1       6.473   0.108  -0.746  1.00  0.00    -0.047 A 
ATOM      8  C   UNL     1       6.605  -0.946   0.146  1.00  0.00     0.004 A 
ATOM      9  C   UNL     1       5.805   1.228  -0.286  1.00  0.00     0.004 A 
ATOM     10  C   UNL     1       6.099  -0.889   1.425  1.00  0.00     0.000 A 
ATOM     11  C   UNL     1       5.299   1.284   0.995  1.00  0.00     0.000 A 
ATOM     12  C   UNL     1       5.433   0.233   1.874  1.00  0.00     0.000 A 
ENDBRANCH   6   7
ENDBRANCH   1   6
TORSDOF 4
ENDMDL
MODEL 3
REMARK VINA RESULT:      -6.8      3.323      5.163
REMARK SMILES O=C(O)CCc1ccccc1
REMARK SMILES IDX 4 1 2 2 1 3 3 4 5 6 6 7 7 8 11 9 8 10 10 11 9 12
REMARK H PARENT 3 5
REMARK Flexibility Score: inf
ROOT
ATOM      1  C   UNL     1       5.026   1.801   0.749  1.00  0.00     0.127 C 
ENDROOT
BRANCH   1   2
ATOM      2  C   UNL     1       4.484   1.114   1.935  1.00  0.00     0.303 C 
ATOM      3  O   UNL     1       5.163   0.200   2.477  1.00  0.00    -0.252 OA
BRANCH   2   4
ATOM      4  O   UNL     1       3.236   1.442   2.483  1.00  0.00    -0.481 OA
ATOM      5  H   UNL     1       2.415   0.963   2.137  1.00  0.00     0.296 HD
ENDBRANCH   2   4
ENDBRANCH   1   2
BRANCH   1   6
ATOM      6  C   UNL     1       6.542   1.878   0.774  1.00  0.00     0.047 C 
BRANCH   6   7
ATOM      7  C   UNL     1       7.135   1.068  -0.322  1.00  0.00    -0.047 A 
ATOM      8  C   UNL     1       8.473   1.207  -0.662  1.00  0.00     0.004 A 
ATOM      9  C   UNL     1       6.402   0.156  -1.059  1.00  0.00     0.004 A 
ATOM     10  C   UNL     1       9.048   0.480  -1.678  1.00  0.00     0.000 A 
ATOM     11  C   UNL     1       6.979  -0.572  -2.077  1.00  0.00     0.000 A 
ATOM     12  C   UNL     1       8.307  -0.427  -2.409  1.00  0.00     0.000 A 
ENDBRANCH   6   7
ENDBRANCH   1   6
TORSDOF 4
ENDMDL
MODEL 4
REMARK VINA RESULT:      -6.7      0.930      1.132
REMARK SMILES O=C(O)CCc1ccccc1
REMARK SMILES IDX 4 1 2 2 1 3 3 4 5 6 6 7 7 8 11 9 8 10 10 11 9 12
REMARK H PARENT 3 5
REMARK Flexibility Score: inf
ROOT
ATOM      1  C   UNL     1       7.028  -1.344  -2.116  1.00  0.00     0.127 C 
ENDROOT
BRANCH   1   2
ATOM      2  C   UNL     1       8.361  -1.922  -2.367  1.00  0.00     0.303 C 
ATOM      3  O   UNL     1       9.349  -1.149  -2.495  1.00  0.00    -0.252 OA
BRANCH   2   4
ATOM      4  O   UNL     1       8.570  -3.305  -2.466  1.00  0.00    -0.481 OA
ATOM      5  H   UNL     1       7.870  -3.928  -2.086  1.00  0.00     0.296 HD
ENDBRANCH   2   4
ENDBRANCH   1   2
BRANCH   1   6
ATOM      6  C   UNL     1       7.096   0.139  -1.800  1.00  0.00     0.047 C 
BRANCH   6   7
ATOM      7  C   UNL     1       6.351   0.453  -0.553  1.00  0.00    -0.047 A 
ATOM      8  C   UNL     1       5.591   1.609  -0.455  1.00  0.00     0.004 A 
ATOM      9  C   UNL     1       6.378  -0.366   0.561  1.00  0.00     0.004 A 
ATOM     10  C   UNL     1       4.898   1.933   0.689  1.00  0.00     0.000 A 
ATOM     11  C   UNL     1       5.683  -0.041   1.706  1.00  0.00     0.000 A 
ATOM     12  C   UNL     1       4.932   1.109   1.796  1.00  0.00     0.000 A 
ENDBRANCH   6   7
ENDBRANCH   1   6
TORSDOF 4
ENDMDL
MODEL 5
REMARK VINA RESULT:      -6.7      1.067      1.966
REMARK SMILES O=C(O)CCc1ccccc1
REMARK SMILES IDX 4 1 2 2 1 3 3 4 5 6 6 7 7 8 11 9 8 10 10 11 9 12
REMARK H PARENT 3 5
REMARK Flexibility Score: inf
ROOT
ATOM      1  C   UNL     1       7.418  -1.573  -1.924  1.00  0.00     0.127 C 
ENDROOT
BRANCH   1   2
ATOM      2  C   UNL     1       8.801  -1.423  -2.410  1.00  0.00     0.303 C 
ATOM      3  O   UNL     1       9.287  -2.315  -3.157  1.00  0.00    -0.252 OA
BRANCH   2   4
ATOM      4  O   UNL     1       9.597  -0.319  -2.072  1.00  0.00    -0.481 OA
ATOM      5  H   UNL     1       9.153   0.583  -1.968  1.00  0.00     0.296 HD
ENDBRANCH   2   4
ENDBRANCH   1   2
BRANCH   1   6
ATOM      6  C   UNL     1       7.330  -1.496  -0.410  1.00  0.00     0.047 C 
BRANCH   6   7
ATOM      7  C   UNL     1       6.515  -0.330   0.018  1.00  0.00    -0.047 A 
ATOM      8  C   UNL     1       5.981  -0.271   1.297  1.00  0.00     0.004 A 
ATOM      9  C   UNL     1       6.239   0.737  -0.817  1.00  0.00     0.004 A 
ATOM     10  C   UNL     1       5.214   0.790   1.721  1.00  0.00     0.000 A 
ATOM     11  C   UNL     1       5.470   1.799  -0.392  1.00  0.00     0.000 A 
ATOM     12  C   UNL     1       4.942   1.850   0.879  1.00  0.00     0.000 A 
ENDBRANCH   6   7
ENDBRANCH   1   6
TORSDOF 4
ENDMDL
