@<TRIPOS>MOLECULE
/home/cewinharhar/GITHUB/reincatalyze/data/processed/docking_pred/2023-Apr-25-2248_maxeplen10_maxtrainstep1000_exh16_gamma099_lrac3e-4_lrcr1e-3/f338baa35ded8d3cb3d8a5b9e0cebf8a24c11f6d_ligand_2.pdbqt
 12 12 0 0 0
SMALL
GASTEIGER

@<TRIPOS>ATOM
      1  C          8.3910   -0.7020   -2.0580 C.3     1  UNL1        0.1270
      2  C          8.3880   -1.9310   -2.8710 C.2     1  UNL1        0.3030
      3  O          7.2860   -2.4100   -3.2530 O.2     1  UNL1       -0.2520
      4  O          9.5720   -2.5870   -3.2380 O.3     1  UNL1       -0.4810
      5  H         10.1530   -2.9800   -2.5100 H       1  UNL1        0.2960
      6  C          7.0470    0.0040   -2.0810 C.3     1  UNL1        0.0470
      7  C          6.4690    0.0940   -0.7150 C.2     1  UNL1       -0.0470
      8  C          5.7830    1.2300   -0.3100 C.2     1  UNL1        0.0040
      9  C          6.5860   -0.9220    0.2160 C.2     1  UNL1        0.0040
     10  C          5.2450    1.3480    0.9510 C.2     1  UNL1        0.0000
     11  C          6.0470   -0.8020    1.4780 C.2     1  UNL1        0.0000
     12  C          5.3690    0.3290    1.8730 C.2     1  UNL1        0.0000
@<TRIPOS>BOND
     1     3     2    2
     2     4     2    1
     3     4     5    1
     4     2     1    1
     5     6     1    1
     6     6     7    1
     7     7     8    2
     8     7     9    1
     9     8    10    1
    10     9    11    2
    11    10    12    2
    12    11    12    1
