@<TRIPOS>MOLECULE
/home/cewinharhar/GITHUB/reincatalyze/data/processed/docking_pred/2023-Apr-25-2248_maxeplen10_maxtrainstep1000_exh16_gamma099_lrac3e-4_lrcr1e-3/f338baa35ded8d3cb3d8a5b9e0cebf8a24c11f6d_ligand_2.pdbqt
 12 12 0 0 0
SMALL
GASTEIGER

@<TRIPOS>ATOM
      1  C          8.3850   -0.6570   -2.1200 C.3     1  UNL1        0.1270
      2  C          8.3960   -1.9110   -2.8930 C.2     1  UNL1        0.3030
      3  O          7.2980   -2.4240   -3.2440 O.2     1  UNL1       -0.2520
      4  O          9.5870   -2.5570   -3.2560 O.3     1  UNL1       -0.4810
      5  H          9.8910   -2.5050   -4.2180 H       1  UNL1        0.2960
      6  C          7.0210    0.0090   -2.1240 C.3     1  UNL1        0.0470
      7  C          6.4730    0.1080   -0.7460 C.2     1  UNL1       -0.0470
      8  C          6.6050   -0.9460    0.1460 C.2     1  UNL1        0.0040
      9  C          5.8050    1.2280   -0.2860 C.2     1  UNL1        0.0040
     10  C          6.0990   -0.8890    1.4250 C.2     1  UNL1        0.0000
     11  C          5.2990    1.2840    0.9950 C.2     1  UNL1        0.0000
     12  C          5.4330    0.2330    1.8740 C.2     1  UNL1        0.0000
@<TRIPOS>BOND
     1     5     4    1
     2     4     2    1
     3     3     2    2
     4     2     1    1
     5     6     1    1
     6     6     7    1
     7     7     9    2
     8     7     8    1
     9     9    11    1
    10     8    10    2
    11    11    12    2
    12    10    12    1
