@<TRIPOS>MOLECULE
/home/cewinharhar/GITHUB/reincatalyze/data/processed/docking_pred/2023-Apr-25-2248_maxeplen10_maxtrainstep1000_exh16_gamma099_lrac3e-4_lrcr1e-3/f338baa35ded8d3cb3d8a5b9e0cebf8a24c11f6d_ligand_2.pdbqt
 12 12 0 0 0
SMALL
GASTEIGER

@<TRIPOS>ATOM
      1  C          7.0280   -1.3440   -2.1160 C.3     1  UNL1        0.1270
      2  C          8.3610   -1.9220   -2.3670 C.2     1  UNL1        0.3030
      3  O          9.3490   -1.1490   -2.4950 O.2     1  UNL1       -0.2520
      4  O          8.5700   -3.3050   -2.4660 O.3     1  UNL1       -0.4810
      5  H          7.8700   -3.9280   -2.0860 H       1  UNL1        0.2960
      6  C          7.0960    0.1390   -1.8000 C.3     1  UNL1        0.0470
      7  C          6.3510    0.4530   -0.5530 C.2     1  UNL1       -0.0470
      8  C          5.5910    1.6090   -0.4550 C.2     1  UNL1        0.0040
      9  C          6.3780   -0.3660    0.5610 C.2     1  UNL1        0.0040
     10  C          4.8980    1.9330    0.6890 C.2     1  UNL1        0.0000
     11  C          5.6830   -0.0410    1.7060 C.2     1  UNL1        0.0000
     12  C          4.9320    1.1090    1.7960 C.2     1  UNL1        0.0000
@<TRIPOS>BOND
     1     3     2    2
     2     4     2    1
     3     4     5    1
     4     2     1    1
     5     1     6    1
     6     6     7    1
     7     7     8    2
     8     7     9    1
     9     8    10    1
    10     9    11    2
    11    10    12    2
    12    11    12    1
