@<TRIPOS>MOLECULE
/home/cewinharhar/GITHUB/reincatalyze/data/processed/docking_pred/2023-Apr-25-2248_maxeplen10_maxtrainstep1000_exh16_gamma099_lrac3e-4_lrcr1e-3/f3c5d297feb9947f67baa3310bcd1cfc63c32b25_ligand_2.pdbqt
 12 12 0 0 0
SMALL
GASTEIGER

@<TRIPOS>ATOM
      1  C          8.3980   -0.6160   -2.1870 C.3     1  UNL1        0.1270
      2  C          8.4310   -1.8950   -2.9190 C.2     1  UNL1        0.3030
      3  O          9.5360   -2.4800   -3.0810 O.2     1  UNL1       -0.2520
      4  O          7.2720   -2.4860   -3.4440 O.3     1  UNL1       -0.4810
      5  H          7.0350   -2.3110   -4.4110 H       1  UNL1        0.2960
      6  C          7.0070   -0.0090   -2.1540 C.3     1  UNL1        0.0470
      7  C          6.4880    0.0580   -0.7630 C.2     1  UNL1       -0.0470
      8  C          6.6340   -1.0200    0.0990 C.2     1  UNL1        0.0040
      9  C          5.8360    1.1690   -0.2600 C.2     1  UNL1        0.0040
     10  C          6.1550   -0.9930    1.3890 C.2     1  UNL1        0.0000
     11  C          5.3570    1.1940    1.0320 C.2     1  UNL1        0.0000
     12  C          5.5040    0.1210    1.8810 C.2     1  UNL1        0.0000
@<TRIPOS>BOND
     1     5     4    1
     2     4     2    1
     3     3     2    2
     4     2     1    1
     5     1     6    1
     6     6     7    1
     7     7     9    2
     8     7     8    1
     9     9    11    1
    10     8    10    2
    11    11    12    2
    12    10    12    1
