@<TRIPOS>MOLECULE
/home/cewinharhar/GITHUB/reincatalyze/data/processed/docking_pred/2023-Apr-25-2248_maxeplen10_maxtrainstep1000_exh16_gamma099_lrac3e-4_lrcr1e-3/f3c5d297feb9947f67baa3310bcd1cfc63c32b25_ligand_2.pdbqt
 12 12 0 0 0
SMALL
GASTEIGER

@<TRIPOS>ATOM
      1  C          8.2670    0.2230   -2.2100 C.3     1  UNL1        0.1270
      2  C          9.3800    0.3620   -1.2540 C.2     1  UNL1        0.3030
      3  O          9.4350   -0.4140   -0.2610 O.2     1  UNL1       -0.2520
      4  O         10.3840    1.3280   -1.4110 O.3     1  UNL1       -0.4810
      5  H         11.2780    1.1720   -0.9660 H       1  UNL1        0.2960
      6  C          7.1000   -0.5520   -1.6230 C.3     1  UNL1        0.0470
      7  C          6.3360    0.2830   -0.6600 C.2     1  UNL1       -0.0470
      8  C          6.1080   -0.1600    0.6350 C.2     1  UNL1        0.0040
      9  C          5.8110    1.5180   -0.9920 C.2     1  UNL1        0.0040
     10  C          5.3960    0.5850    1.5470 C.2     1  UNL1        0.0000
     11  C          5.0980    2.2630   -0.0780 C.2     1  UNL1        0.0000
     12  C          4.8750    1.8160    1.2050 C.2     1  UNL1        0.0000
@<TRIPOS>BOND
     1     1     6    1
     2     1     2    1
     3     6     7    1
     4     4     2    1
     5     4     5    1
     6     2     3    2
     7     9     7    2
     8     9    11    1
     9     7     8    1
    10    11    12    2
    11     8    10    2
    12    12    10    1
