@<TRIPOS>MOLECULE
/home/cewinharhar/GITHUB/reincatalyze/data/processed/docking_pred/2023-Apr-25-2248_maxeplen10_maxtrainstep1000_exh16_gamma099_lrac3e-4_lrcr1e-3/f3c5d297feb9947f67baa3310bcd1cfc63c32b25_ligand_2.pdbqt
 12 12 0 0 0
SMALL
GASTEIGER

@<TRIPOS>ATOM
      1  C          8.2610   -0.9250   -1.8530 C.3     1  UNL1        0.1270
      2  C          8.3340   -2.0050   -2.8530 C.2     1  UNL1        0.3030
      3  O          7.2650   -2.4500   -3.3520 O.2     1  UNL1       -0.2520
      4  O          9.5530   -2.5550   -3.2720 O.3     1  UNL1       -0.4810
      5  H         10.2080   -2.8710   -2.5700 H       1  UNL1        0.2960
      6  C          7.5770   -1.3720   -0.5740 C.3     1  UNL1        0.0470
      7  C          6.6660   -0.3170   -0.0590 C.2     1  UNL1       -0.0470
      8  C          6.1260   -0.4070    1.2160 C.2     1  UNL1        0.0040
      9  C          6.3020    0.7880   -0.8080 C.2     1  UNL1        0.0040
     10  C          5.2720    0.5480    1.7160 C.2     1  UNL1        0.0000
     11  C          5.4460    1.7440   -0.3050 C.2     1  UNL1        0.0000
     12  C          4.9140    1.6460    0.9610 C.2     1  UNL1        0.0000
@<TRIPOS>BOND
     1     3     2    2
     2     4     2    1
     3     4     5    1
     4     2     1    1
     5     1     6    1
     6     9    11    1
     7     9     7    2
     8     6     7    1
     9    11    12    2
    10     7     8    1
    11    12    10    1
    12     8    10    2
