@<TRIPOS>MOLECULE
/home/cewinharhar/GITHUB/reincatalyze/data/processed/docking_pred/2023-Apr-25-2248_maxeplen10_maxtrainstep1000_exh16_gamma099_lrac3e-4_lrcr1e-3/f3c5d297feb9947f67baa3310bcd1cfc63c32b25_ligand_2.pdbqt
 12 12 0 0 0
SMALL
GASTEIGER

@<TRIPOS>ATOM
      1  C          5.0200    1.7970    0.7280 C.3     1  UNL1        0.1270
      2  C          4.4850    1.1160    1.9200 C.2     1  UNL1        0.3030
      3  O          5.1690    0.2070    2.4640 O.2     1  UNL1       -0.2520
      4  O          3.2400    1.4470    2.4740 O.3     1  UNL1       -0.4810
      5  H          3.2160    1.8620    3.3960 H       1  UNL1        0.2960
      6  C          6.5360    1.8880    0.7500 C.3     1  UNL1        0.0470
      7  C          7.1350    1.0680   -0.3340 C.2     1  UNL1       -0.0470
      8  C          8.4740    1.2060   -0.6690 C.2     1  UNL1        0.0040
      9  C          6.4070    0.1450   -1.0640 C.2     1  UNL1        0.0040
     10  C          9.0550    0.4690   -1.6750 C.2     1  UNL1        0.0000
     11  C          6.9910   -0.5920   -2.0710 C.2     1  UNL1        0.0000
     12  C          8.3200   -0.4480   -2.3990 C.2     1  UNL1        0.0000
@<TRIPOS>BOND
     1    12    11    2
     2    12    10    1
     3    11     9    1
     4    10     8    2
     5     9     7    2
     6     8     7    1
     7     7     6    1
     8     1     6    1
     9     1     2    1
    10     2     3    2
    11     2     4    1
    12     4     5    1
