MODEL 1
REMARK VINA RESULT:      -7.3      0.000      0.000
REMARK SMILES O=C(O)CCc1ccccc1
REMARK SMILES IDX 4 1 2 2 1 3 3 4 5 6 6 7 7 8 11 9 8 10 10 11 9 12
REMARK H PARENT 3 5
REMARK Flexibility Score: inf
ROOT
ATOM      1  C   UNL     1       8.398  -0.616  -2.187  1.00  0.00     0.127 C 
ENDROOT
BRANCH   1   2
ATOM      2  C   UNL     1       8.431  -1.895  -2.919  1.00  0.00     0.303 C 
ATOM      3  O   UNL     1       9.536  -2.480  -3.081  1.00  0.00    -0.252 OA
BRANCH   2   4
ATOM      4  O   UNL     1       7.272  -2.486  -3.444  1.00  0.00    -0.481 OA
ATOM      5  H   UNL     1       7.035  -2.311  -4.411  1.00  0.00     0.296 HD
ENDBRANCH   2   4
ENDBRANCH   1   2
BRANCH   1   6
ATOM      6  C   UNL     1       7.007  -0.009  -2.154  1.00  0.00     0.047 C 
BRANCH   6   7
ATOM      7  C   UNL     1       6.488   0.058  -0.763  1.00  0.00    -0.047 A 
ATOM      8  C   UNL     1       6.634  -1.020   0.099  1.00  0.00     0.004 A 
ATOM      9  C   UNL     1       5.836   1.169  -0.260  1.00  0.00     0.004 A 
ATOM     10  C   UNL     1       6.155  -0.993   1.389  1.00  0.00     0.000 A 
ATOM     11  C   UNL     1       5.357   1.194   1.032  1.00  0.00     0.000 A 
ATOM     12  C   UNL     1       5.504   0.121   1.881  1.00  0.00     0.000 A 
ENDBRANCH   6   7
ENDBRANCH   1   6
TORSDOF 4
ENDMDL
MODEL 2
REMARK VINA RESULT:      -7.2      0.046      1.421
REMARK SMILES O=C(O)CCc1ccccc1
REMARK SMILES IDX 4 1 2 2 1 3 3 4 5 6 6 7 7 8 11 9 8 10 10 11 9 12
REMARK H PARENT 3 5
REMARK Flexibility Score: inf
ROOT
ATOM      1  C   UNL     1       8.399  -0.581  -2.241  1.00  0.00     0.127 C 
ENDROOT
BRANCH   1   2
ATOM      2  C   UNL     1       8.436  -1.886  -2.924  1.00  0.00     0.303 C 
ATOM      3  O   UNL     1       9.541  -2.478  -3.055  1.00  0.00    -0.252 OA
BRANCH   2   4
ATOM      4  O   UNL     1       7.280  -2.495  -3.435  1.00  0.00    -0.481 OA
ATOM      5  H   UNL     1       7.308  -2.875  -4.371  1.00  0.00     0.296 HD
ENDBRANCH   2   4
ENDBRANCH   1   2
BRANCH   1   6
ATOM      6  C   UNL     1       6.998   0.002  -2.190  1.00  0.00     0.047 C 
BRANCH   6   7
ATOM      7  C   UNL     1       6.489   0.042  -0.794  1.00  0.00    -0.047 A 
ATOM      8  C   UNL     1       5.849   1.173  -0.307  1.00  0.00     0.004 A 
ATOM      9  C   UNL     1       6.629  -1.016   0.085  1.00  0.00     0.004 A 
ATOM     10  C   UNL     1       5.376   1.246   0.983  1.00  0.00     0.000 A 
ATOM     11  C   UNL     1       6.155  -0.942   1.377  1.00  0.00     0.000 A 
ATOM     12  C   UNL     1       5.522   0.184   1.853  1.00  0.00     0.000 A 
ENDBRANCH   6   7
ENDBRANCH   1   6
TORSDOF 4
ENDMDL
MODEL 3
REMARK VINA RESULT:      -7.0      0.702      1.581
REMARK SMILES O=C(O)CCc1ccccc1
REMARK SMILES IDX 4 1 2 2 1 3 3 4 5 6 6 7 7 8 11 9 8 10 10 11 9 12
REMARK H PARENT 3 5
REMARK Flexibility Score: inf
ROOT
ATOM      1  C   UNL     1       8.261  -0.925  -1.853  1.00  0.00     0.127 C 
ENDROOT
BRANCH   1   2
ATOM      2  C   UNL     1       8.334  -2.005  -2.853  1.00  0.00     0.303 C 
ATOM      3  O   UNL     1       7.265  -2.450  -3.352  1.00  0.00    -0.252 OA
BRANCH   2   4
ATOM      4  O   UNL     1       9.553  -2.555  -3.272  1.00  0.00    -0.481 OA
ATOM      5  H   UNL     1      10.208  -2.871  -2.570  1.00  0.00     0.296 HD
ENDBRANCH   2   4
ENDBRANCH   1   2
BRANCH   1   6
ATOM      6  C   UNL     1       7.577  -1.372  -0.574  1.00  0.00     0.047 C 
BRANCH   6   7
ATOM      7  C   UNL     1       6.666  -0.317  -0.059  1.00  0.00    -0.047 A 
ATOM      8  C   UNL     1       6.126  -0.407   1.216  1.00  0.00     0.004 A 
ATOM      9  C   UNL     1       6.302   0.788  -0.808  1.00  0.00     0.004 A 
ATOM     10  C   UNL     1       5.272   0.548   1.716  1.00  0.00     0.000 A 
ATOM     11  C   UNL     1       5.446   1.744  -0.305  1.00  0.00     0.000 A 
ATOM     12  C   UNL     1       4.914   1.646   0.961  1.00  0.00     0.000 A 
ENDBRANCH   6   7
ENDBRANCH   1   6
TORSDOF 4
ENDMDL
MODEL 4
REMARK VINA RESULT:      -6.8      3.394      5.085
REMARK SMILES O=C(O)CCc1ccccc1
REMARK SMILES IDX 4 1 2 2 1 3 3 4 5 6 6 7 7 8 11 9 8 10 10 11 9 12
REMARK H PARENT 3 5
REMARK Flexibility Score: inf
ROOT
ATOM      1  C   UNL     1       5.020   1.797   0.728  1.00  0.00     0.127 C 
ENDROOT
BRANCH   1   2
ATOM      2  C   UNL     1       4.485   1.116   1.920  1.00  0.00     0.303 C 
ATOM      3  O   UNL     1       5.169   0.207   2.464  1.00  0.00    -0.252 OA
BRANCH   2   4
ATOM      4  O   UNL     1       3.240   1.447   2.474  1.00  0.00    -0.481 OA
ATOM      5  H   UNL     1       3.216   1.862   3.396  1.00  0.00     0.296 HD
ENDBRANCH   2   4
ENDBRANCH   1   2
BRANCH   1   6
ATOM      6  C   UNL     1       6.536   1.888   0.750  1.00  0.00     0.047 C 
BRANCH   6   7
ATOM      7  C   UNL     1       7.135   1.068  -0.334  1.00  0.00    -0.047 A 
ATOM      8  C   UNL     1       8.474   1.206  -0.669  1.00  0.00     0.004 A 
ATOM      9  C   UNL     1       6.407   0.145  -1.064  1.00  0.00     0.004 A 
ATOM     10  C   UNL     1       9.055   0.469  -1.675  1.00  0.00     0.000 A 
ATOM     11  C   UNL     1       6.991  -0.592  -2.071  1.00  0.00     0.000 A 
ATOM     12  C   UNL     1       8.320  -0.448  -2.399  1.00  0.00     0.000 A 
ENDBRANCH   6   7
ENDBRANCH   1   6
TORSDOF 4
ENDMDL
MODEL 5
REMARK VINA RESULT:      -6.6      1.952      2.373
REMARK SMILES O=C(O)CCc1ccccc1
REMARK SMILES IDX 4 1 2 2 1 3 3 4 5 6 6 7 7 8 11 9 8 10 10 11 9 12
REMARK H PARENT 3 5
REMARK Flexibility Score: inf
ROOT
ATOM      1  C   UNL     1       8.267   0.223  -2.210  1.00  0.00     0.127 C 
ENDROOT
BRANCH   1   2
ATOM      2  C   UNL     1       9.380   0.362  -1.254  1.00  0.00     0.303 C 
ATOM      3  O   UNL     1       9.435  -0.414  -0.261  1.00  0.00    -0.252 OA
BRANCH   2   4
ATOM      4  O   UNL     1      10.384   1.328  -1.411  1.00  0.00    -0.481 OA
ATOM      5  H   UNL     1      11.278   1.172  -0.966  1.00  0.00     0.296 HD
ENDBRANCH   2   4
ENDBRANCH   1   2
BRANCH   1   6
ATOM      6  C   UNL     1       7.100  -0.552  -1.623  1.00  0.00     0.047 C 
BRANCH   6   7
ATOM      7  C   UNL     1       6.336   0.283  -0.660  1.00  0.00    -0.047 A 
ATOM      8  C   UNL     1       6.108  -0.160   0.635  1.00  0.00     0.004 A 
ATOM      9  C   UNL     1       5.811   1.518  -0.992  1.00  0.00     0.004 A 
ATOM     10  C   UNL     1       5.396   0.585   1.547  1.00  0.00     0.000 A 
ATOM     11  C   UNL     1       5.098   2.263  -0.078  1.00  0.00     0.000 A 
ATOM     12  C   UNL     1       4.875   1.816   1.205  1.00  0.00     0.000 A 
ENDBRANCH   6   7
ENDBRANCH   1   6
TORSDOF 4
ENDMDL
