@<TRIPOS>MOLECULE
/home/cewinharhar/GITHUB/reincatalyze/data/processed/docking_pred/2023-Apr-25-2248_maxeplen10_maxtrainstep1000_exh16_gamma099_lrac3e-4_lrcr1e-3/f411d25023d78b520541a26d40866fe70d26d332_ligand_2.pdbqt
 12 12 0 0 0
SMALL
GASTEIGER

@<TRIPOS>ATOM
      1  C          8.3930    0.5050   -1.8750 C.3     1  UNL1        0.1270
      2  C          9.5350    0.2600   -0.9780 C.2     1  UNL1        0.3030
      3  O          9.3960   -0.5410   -0.0140 O.2     1  UNL1       -0.2520
      4  O         10.7770    0.8870   -1.1590 O.3     1  UNL1       -0.4810
      5  H         10.8760    1.8530   -0.8770 H       1  UNL1        0.2960
      6  C          7.1960   -0.3630   -1.5300 C.3     1  UNL1        0.0470
      7  C          6.3640    0.2720   -0.4750 C.2     1  UNL1       -0.0470
      8  C          5.7600    1.5020   -0.6940 C.2     1  UNL1        0.0040
      9  C          6.1550   -0.3080    0.7630 C.2     1  UNL1        0.0040
     10  C          4.9930    2.1200    0.2660 C.2     1  UNL1        0.0000
     11  C          5.3860    0.3130    1.7240 C.2     1  UNL1        0.0000
     12  C          4.7920    1.5340    1.5000 C.2     1  UNL1        0.0000
@<TRIPOS>BOND
     1     1     6    1
     2     1     2    1
     3     6     7    1
     4     4     2    1
     5     4     5    1
     6     2     3    2
     7     8     7    2
     8     8    10    1
     9     7     9    1
    10    10    12    2
    11     9    11    2
    12    12    11    1
