MODEL 1
REMARK VINA RESULT:      -7.3      0.000      0.000
REMARK SMILES O=C(O)CCc1ccccc1
REMARK SMILES IDX 4 1 2 2 1 3 3 4 5 6 6 7 7 8 11 9 8 10 10 11 9 12
REMARK H PARENT 3 5
REMARK Flexibility Score: inf
ROOT
ATOM      1  C   UNL     1       8.397  -0.783  -1.996  1.00  0.00     0.127 C 
ENDROOT
BRANCH   1   2
ATOM      2  C   UNL     1       8.426  -1.968  -2.871  1.00  0.00     0.303 C 
ATOM      3  O   UNL     1       9.526  -2.549  -3.078  1.00  0.00    -0.252 OA
BRANCH   2   4
ATOM      4  O   UNL     1       7.271  -2.476  -3.482  1.00  0.00    -0.481 OA
ATOM      5  H   UNL     1       7.317  -2.746  -4.455  1.00  0.00     0.296 HD
ENDBRANCH   2   4
ENDBRANCH   1   2
BRANCH   1   6
ATOM      6  C   UNL     1       7.068  -0.051  -2.066  1.00  0.00     0.047 C 
BRANCH   6   7
ATOM      7  C   UNL     1       6.473   0.103  -0.713  1.00  0.00    -0.047 A 
ATOM      8  C   UNL     1       6.563  -0.920   0.220  1.00  0.00     0.004 A 
ATOM      9  C   UNL     1       5.801   1.244  -0.317  1.00  0.00     0.004 A 
ATOM     10  C   UNL     1       6.013  -0.813   1.477  1.00  0.00     0.000 A 
ATOM     11  C   UNL     1       5.250   1.350   0.943  1.00  0.00     0.000 A 
ATOM     12  C   UNL     1       5.343   0.330   1.862  1.00  0.00     0.000 A 
ENDBRANCH   6   7
ENDBRANCH   1   6
TORSDOF 4
ENDMDL
MODEL 2
REMARK VINA RESULT:      -7.3      0.053      1.422
REMARK SMILES O=C(O)CCc1ccccc1
REMARK SMILES IDX 4 1 2 2 1 3 3 4 5 6 6 7 7 8 11 9 8 10 10 11 9 12
REMARK H PARENT 3 5
REMARK Flexibility Score: inf
ROOT
ATOM      1  C   UNL     1       8.409  -0.727  -2.044  1.00  0.00     0.127 C 
ENDROOT
BRANCH   1   2
ATOM      2  C   UNL     1       8.429  -1.946  -2.871  1.00  0.00     0.303 C 
ATOM      3  O   UNL     1       9.529  -2.526  -3.081  1.00  0.00    -0.252 OA
BRANCH   2   4
ATOM      4  O   UNL     1       7.263  -2.488  -3.433  1.00  0.00    -0.481 OA
ATOM      5  H   UNL     1       7.345  -3.309  -4.018  1.00  0.00     0.296 HD
ENDBRANCH   2   4
ENDBRANCH   1   2
BRANCH   1   6
ATOM      6  C   UNL     1       7.055  -0.039  -2.068  1.00  0.00     0.047 C 
BRANCH   6   7
ATOM      7  C   UNL     1       6.479   0.049  -0.701  1.00  0.00    -0.047 A 
ATOM      8  C   UNL     1       5.810   1.192  -0.287  1.00  0.00     0.004 A 
ATOM      9  C   UNL     1       6.582  -0.975   0.223  1.00  0.00     0.004 A 
ATOM     10  C   UNL     1       5.274   1.309   0.975  1.00  0.00     0.000 A 
ATOM     11  C   UNL     1       6.044  -0.857   1.486  1.00  0.00     0.000 A 
ATOM     12  C   UNL     1       5.383   0.281   1.889  1.00  0.00     0.000 A 
ENDBRANCH   6   7
ENDBRANCH   1   6
TORSDOF 4
ENDMDL
MODEL 3
REMARK VINA RESULT:      -6.8      3.411      5.115
REMARK SMILES O=C(O)CCc1ccccc1
REMARK SMILES IDX 4 1 2 2 1 3 3 4 5 6 6 7 7 8 11 9 8 10 10 11 9 12
REMARK H PARENT 3 5
REMARK Flexibility Score: inf
ROOT
ATOM      1  C   UNL     1       4.992   1.779   0.730  1.00  0.00     0.127 C 
ENDROOT
BRANCH   1   2
ATOM      2  C   UNL     1       4.463   1.111   1.932  1.00  0.00     0.303 C 
ATOM      3  O   UNL     1       5.147   0.205   2.480  1.00  0.00    -0.252 OA
BRANCH   2   4
ATOM      4  O   UNL     1       3.222   1.449   2.491  1.00  0.00    -0.481 OA
ATOM      5  H   UNL     1       3.110   1.387   3.494  1.00  0.00     0.296 HD
ENDBRANCH   2   4
ENDBRANCH   1   2
BRANCH   1   6
ATOM      6  C   UNL     1       6.505   1.894   0.757  1.00  0.00     0.047 C 
BRANCH   6   7
ATOM      7  C   UNL     1       7.120   1.086  -0.329  1.00  0.00    -0.047 A 
ATOM      8  C   UNL     1       8.467   1.220  -0.635  1.00  0.00     0.004 A 
ATOM      9  C   UNL     1       6.400   0.182  -1.088  1.00  0.00     0.004 A 
ATOM     10  C   UNL     1       9.063   0.494  -1.641  1.00  0.00     0.000 A 
ATOM     11  C   UNL     1       6.999  -0.544  -2.095  1.00  0.00     0.000 A 
ATOM     12  C   UNL     1       8.335  -0.405  -2.393  1.00  0.00     0.000 A 
ENDBRANCH   6   7
ENDBRANCH   1   6
TORSDOF 4
ENDMDL
MODEL 4
REMARK VINA RESULT:      -6.6      2.004      2.699
REMARK SMILES O=C(O)CCc1ccccc1
REMARK SMILES IDX 4 1 2 2 1 3 3 4 5 6 6 7 7 8 11 9 8 10 10 11 9 12
REMARK H PARENT 3 5
REMARK Flexibility Score: inf
ROOT
ATOM      1  C   UNL     1       8.393   0.505  -1.875  1.00  0.00     0.127 C 
ENDROOT
BRANCH   1   2
ATOM      2  C   UNL     1       9.535   0.260  -0.978  1.00  0.00     0.303 C 
ATOM      3  O   UNL     1       9.396  -0.541  -0.014  1.00  0.00    -0.252 OA
BRANCH   2   4
ATOM      4  O   UNL     1      10.777   0.887  -1.159  1.00  0.00    -0.481 OA
ATOM      5  H   UNL     1      10.876   1.853  -0.877  1.00  0.00     0.296 HD
ENDBRANCH   2   4
ENDBRANCH   1   2
BRANCH   1   6
ATOM      6  C   UNL     1       7.196  -0.363  -1.530  1.00  0.00     0.047 C 
BRANCH   6   7
ATOM      7  C   UNL     1       6.364   0.272  -0.475  1.00  0.00    -0.047 A 
ATOM      8  C   UNL     1       5.760   1.502  -0.694  1.00  0.00     0.004 A 
ATOM      9  C   UNL     1       6.155  -0.308   0.763  1.00  0.00     0.004 A 
ATOM     10  C   UNL     1       4.993   2.120   0.266  1.00  0.00     0.000 A 
ATOM     11  C   UNL     1       5.386   0.313   1.724  1.00  0.00     0.000 A 
ATOM     12  C   UNL     1       4.792   1.534   1.500  1.00  0.00     0.000 A 
ENDBRANCH   6   7
ENDBRANCH   1   6
TORSDOF 4
ENDMDL
MODEL 5
REMARK VINA RESULT:      -6.6      1.880      2.850
REMARK SMILES O=C(O)CCc1ccccc1
REMARK SMILES IDX 4 1 2 2 1 3 3 4 5 6 6 7 7 8 11 9 8 10 10 11 9 12
REMARK H PARENT 3 5
REMARK Flexibility Score: inf
ROOT
ATOM      1  C   UNL     1       8.215  -1.628   1.120  1.00  0.00     0.127 C 
ENDROOT
BRANCH   1   2
ATOM      2  C   UNL     1       8.512  -2.820   0.306  1.00  0.00     0.303 C 
ATOM      3  O   UNL     1       9.159  -3.770   0.826  1.00  0.00    -0.252 OA
BRANCH   2   4
ATOM      4  O   UNL     1       8.099  -2.936  -1.028  1.00  0.00    -0.481 OA
ATOM      5  H   UNL     1       7.900  -2.092  -1.548  1.00  0.00     0.296 HD
ENDBRANCH   2   4
ENDBRANCH   1   2
BRANCH   1   6
ATOM      6  C   UNL     1       6.730  -1.479   1.400  1.00  0.00     0.047 C 
BRANCH   6   7
ATOM      7  C   UNL     1       6.202  -0.220   0.815  1.00  0.00    -0.047 A 
ATOM      8  C   UNL     1       5.415   0.637   1.572  1.00  0.00     0.004 A 
ATOM      9  C   UNL     1       6.448   0.160  -0.492  1.00  0.00     0.004 A 
ATOM     10  C   UNL     1       4.902   1.805   1.057  1.00  0.00     0.000 A 
ATOM     11  C   UNL     1       5.934   1.331  -1.006  1.00  0.00     0.000 A 
ATOM     12  C   UNL     1       5.153   2.175  -0.249  1.00  0.00     0.000 A 
ENDBRANCH   6   7
ENDBRANCH   1   6
TORSDOF 4
ENDMDL
