@<TRIPOS>MOLECULE
/home/cewinharhar/GITHUB/reincatalyze/data/processed/docking_pred/2023-Apr-25-2248_maxeplen10_maxtrainstep1000_exh16_gamma099_lrac3e-4_lrcr1e-3/f411d25023d78b520541a26d40866fe70d26d332_ligand_2.pdbqt
 12 12 0 0 0
SMALL
GASTEIGER

@<TRIPOS>ATOM
      1  C          4.9920    1.7790    0.7300 C.3     1  UNL1        0.1270
      2  C          4.4630    1.1110    1.9320 C.2     1  UNL1        0.3030
      3  O          5.1470    0.2050    2.4800 O.2     1  UNL1       -0.2520
      4  O          3.2220    1.4490    2.4910 O.3     1  UNL1       -0.4810
      5  H          3.1100    1.3870    3.4940 H       1  UNL1        0.2960
      6  C          6.5050    1.8940    0.7570 C.3     1  UNL1        0.0470
      7  C          7.1200    1.0860   -0.3290 C.2     1  UNL1       -0.0470
      8  C          8.4670    1.2200   -0.6350 C.2     1  UNL1        0.0040
      9  C          6.4000    0.1820   -1.0880 C.2     1  UNL1        0.0040
     10  C          9.0630    0.4940   -1.6410 C.2     1  UNL1        0.0000
     11  C          6.9990   -0.5440   -2.0950 C.2     1  UNL1        0.0000
     12  C          8.3350   -0.4050   -2.3930 C.2     1  UNL1        0.0000
@<TRIPOS>BOND
     1    12    11    2
     2    12    10    1
     3    11     9    1
     4    10     8    2
     5     9     7    2
     6     8     7    1
     7     7     6    1
     8     1     6    1
     9     1     2    1
    10     2     3    2
    11     2     4    1
    12     4     5    1
