@<TRIPOS>MOLECULE
/home/cewinharhar/GITHUB/reincatalyze/data/processed/docking_pred/2023-Apr-25-2248_maxeplen10_maxtrainstep1000_exh16_gamma099_lrac3e-4_lrcr1e-3/f411d25023d78b520541a26d40866fe70d26d332_ligand_2.pdbqt
 12 12 0 0 0
SMALL
GASTEIGER

@<TRIPOS>ATOM
      1  C          8.4090   -0.7270   -2.0440 C.3     1  UNL1        0.1270
      2  C          8.4290   -1.9460   -2.8710 C.2     1  UNL1        0.3030
      3  O          9.5290   -2.5260   -3.0810 O.2     1  UNL1       -0.2520
      4  O          7.2630   -2.4880   -3.4330 O.3     1  UNL1       -0.4810
      5  H          7.3450   -3.3090   -4.0180 H       1  UNL1        0.2960
      6  C          7.0550   -0.0390   -2.0680 C.3     1  UNL1        0.0470
      7  C          6.4790    0.0490   -0.7010 C.2     1  UNL1       -0.0470
      8  C          5.8100    1.1920   -0.2870 C.2     1  UNL1        0.0040
      9  C          6.5820   -0.9750    0.2230 C.2     1  UNL1        0.0040
     10  C          5.2740    1.3090    0.9750 C.2     1  UNL1        0.0000
     11  C          6.0440   -0.8570    1.4860 C.2     1  UNL1        0.0000
     12  C          5.3830    0.2810    1.8890 C.2     1  UNL1        0.0000
@<TRIPOS>BOND
     1     5     4    1
     2     4     2    1
     3     3     2    2
     4     2     1    1
     5     6     1    1
     6     6     7    1
     7     7     8    2
     8     7     9    1
     9     8    10    1
    10     9    11    2
    11    10    12    2
    12    11    12    1
