@<TRIPOS>MOLECULE
/home/cewinharhar/GITHUB/reincatalyze/data/processed/docking_pred/2023-Apr-25-2248_maxeplen10_maxtrainstep1000_exh16_gamma099_lrac3e-4_lrcr1e-3/f411d25023d78b520541a26d40866fe70d26d332_ligand_2.pdbqt
 12 12 0 0 0
SMALL
GASTEIGER

@<TRIPOS>ATOM
      1  C          8.2150   -1.6280    1.1200 C.3     1  UNL1        0.1270
      2  C          8.5120   -2.8200    0.3060 C.2     1  UNL1        0.3030
      3  O          9.1590   -3.7700    0.8260 O.2     1  UNL1       -0.2520
      4  O          8.0990   -2.9360   -1.0280 O.3     1  UNL1       -0.4810
      5  H          7.9000   -2.0920   -1.5480 H       1  UNL1        0.2960
      6  C          6.7300   -1.4790    1.4000 C.3     1  UNL1        0.0470
      7  C          6.2020   -0.2200    0.8150 C.2     1  UNL1       -0.0470
      8  C          5.4150    0.6370    1.5720 C.2     1  UNL1        0.0040
      9  C          6.4480    0.1600   -0.4920 C.2     1  UNL1        0.0040
     10  C          4.9020    1.8050    1.0570 C.2     1  UNL1        0.0000
     11  C          5.9340    1.3310   -1.0060 C.2     1  UNL1        0.0000
     12  C          5.1530    2.1750   -0.2490 C.2     1  UNL1        0.0000
@<TRIPOS>BOND
     1     5     4    1
     2     4     2    1
     3    11     9    1
     4    11    12    2
     5     9     7    2
     6    12    10    1
     7     2     3    2
     8     2     1    1
     9     7     6    1
    10     7     8    1
    11    10     8    2
    12     1     6    1
