@<TRIPOS>MOLECULE
/home/cewinharhar/GITHUB/reincatalyze/data/processed/docking_pred/2023-Apr-25-2248_maxeplen10_maxtrainstep1000_exh16_gamma099_lrac3e-4_lrcr1e-3/f43d8cd6194682d8f3e5600fbc578d0750565092_ligand_2.pdbqt
 12 12 0 0 0
SMALL
GASTEIGER

@<TRIPOS>ATOM
      1  C          5.0080    1.7910    0.6890 C.3     1  UNL1        0.1270
      2  C          4.4880    1.1270    1.8980 C.2     1  UNL1        0.3030
      3  O          5.1780    0.2270    2.4470 O.2     1  UNL1       -0.2520
      4  O          3.2480    1.4640    2.4600 O.3     1  UNL1       -0.4810
      5  H          3.2210    2.1720    3.1820 H       1  UNL1        0.2960
      6  C          6.5200    1.9270    0.7160 C.3     1  UNL1        0.0470
      7  C          7.1470    1.1150   -0.3600 C.2     1  UNL1       -0.0470
      8  C          6.3890    0.2280   -1.1100 C.2     1  UNL1        0.0040
      9  C          8.4940    1.1870   -0.6630 C.2     1  UNL1        0.0040
     10  C          6.9420   -0.5450   -2.1050 C.2     1  UNL1        0.0000
     11  C          9.0460    0.4120   -1.6600 C.2     1  UNL1        0.0000
     12  C          8.2880   -0.4670   -2.3990 C.2     1  UNL1        0.0000
@<TRIPOS>BOND
     1    12    10    2
     2    12    11    1
     3    10     8    1
     4    11     9    2
     5     8     7    2
     6     9     7    1
     7     7     6    1
     8     1     6    1
     9     1     2    1
    10     2     3    2
    11     2     4    1
    12     4     5    1
