MODEL 1
REMARK VINA RESULT:      -7.2      0.000      0.000
REMARK SMILES O=C(O)CCc1ccccc1
REMARK SMILES IDX 4 1 2 2 1 3 3 4 5 6 6 7 7 8 11 9 8 10 10 11 9 12
REMARK H PARENT 3 5
REMARK Flexibility Score: inf
ROOT
ATOM      1  C   UNL     1       8.448  -0.700  -2.041  1.00  0.00     0.127 C 
ENDROOT
BRANCH   1   2
ATOM      2  C   UNL     1       8.410  -1.919  -2.868  1.00  0.00     0.303 C 
ATOM      3  O   UNL     1       7.293  -2.390  -3.215  1.00  0.00    -0.252 OA
BRANCH   2   4
ATOM      4  O   UNL     1       9.577  -2.576  -3.286  1.00  0.00    -0.481 OA
ATOM      5  H   UNL     1       9.620  -2.931  -4.231  1.00  0.00     0.296 HD
ENDBRANCH   2   4
ENDBRANCH   1   2
BRANCH   1   6
ATOM      6  C   UNL     1       7.138   0.067  -2.090  1.00  0.00     0.047 C 
BRANCH   6   7
ATOM      7  C   UNL     1       6.520   0.152  -0.742  1.00  0.00    -0.047 A 
ATOM      8  C   UNL     1       5.823   1.287  -0.353  1.00  0.00     0.004 A 
ATOM      9  C   UNL     1       6.608  -0.868   0.188  1.00  0.00     0.004 A 
ATOM     10  C   UNL     1       5.248   1.401   0.892  1.00  0.00     0.000 A 
ATOM     11  C   UNL     1       6.031  -0.752   1.435  1.00  0.00     0.000 A 
ATOM     12  C   UNL     1       5.343   0.378   1.813  1.00  0.00     0.000 A 
ENDBRANCH   6   7
ENDBRANCH   1   6
TORSDOF 4
ENDMDL
MODEL 2
REMARK VINA RESULT:      -7.2      0.085      1.423
REMARK SMILES O=C(O)CCc1ccccc1
REMARK SMILES IDX 4 1 2 2 1 3 3 4 5 6 6 7 7 8 11 9 8 10 10 11 9 12
REMARK H PARENT 3 5
REMARK Flexibility Score: inf
ROOT
ATOM      1  C   UNL     1       8.402  -0.670  -2.104  1.00  0.00     0.127 C 
ENDROOT
BRANCH   1   2
ATOM      2  C   UNL     1       8.403  -1.919  -2.885  1.00  0.00     0.303 C 
ATOM      3  O   UNL     1       7.301  -2.423  -3.236  1.00  0.00    -0.252 OA
BRANCH   2   4
ATOM      4  O   UNL     1       9.589  -2.569  -3.255  1.00  0.00    -0.481 OA
ATOM      5  H   UNL     1      10.289  -2.738  -2.546  1.00  0.00     0.296 HD
ENDBRANCH   2   4
ENDBRANCH   1   2
BRANCH   1   6
ATOM      6  C   UNL     1       7.049   0.019  -2.124  1.00  0.00     0.047 C 
BRANCH   6   7
ATOM      7  C   UNL     1       6.486   0.127  -0.753  1.00  0.00    -0.047 A 
ATOM      8  C   UNL     1       6.616  -0.918   0.150  1.00  0.00     0.004 A 
ATOM      9  C   UNL     1       5.805   1.247  -0.310  1.00  0.00     0.004 A 
ATOM     10  C   UNL     1       6.096  -0.852   1.423  1.00  0.00     0.000 A 
ATOM     11  C   UNL     1       5.286   1.311   0.965  1.00  0.00     0.000 A 
ATOM     12  C   UNL     1       5.418   0.269   1.855  1.00  0.00     0.000 A 
ENDBRANCH   6   7
ENDBRANCH   1   6
TORSDOF 4
ENDMDL
MODEL 3
REMARK VINA RESULT:      -6.8      3.302      5.154
REMARK SMILES O=C(O)CCc1ccccc1
REMARK SMILES IDX 4 1 2 2 1 3 3 4 5 6 6 7 7 8 11 9 8 10 10 11 9 12
REMARK H PARENT 3 5
REMARK Flexibility Score: inf
ROOT
ATOM      1  C   UNL     1       5.034   1.800   0.758  1.00  0.00     0.127 C 
ENDROOT
BRANCH   1   2
ATOM      2  C   UNL     1       4.469   1.115   1.934  1.00  0.00     0.303 C 
ATOM      3  O   UNL     1       5.125   0.183   2.474  1.00  0.00    -0.252 OA
BRANCH   2   4
ATOM      4  O   UNL     1       3.224   1.465   2.476  1.00  0.00    -0.481 OA
ATOM      5  H   UNL     1       2.716   2.236   2.064  1.00  0.00     0.296 HD
ENDBRANCH   2   4
ENDBRANCH   1   2
BRANCH   1   6
ATOM      6  C   UNL     1       6.551   1.848   0.797  1.00  0.00     0.047 C 
BRANCH   6   7
ATOM      7  C   UNL     1       7.138   1.049  -0.310  1.00  0.00    -0.047 A 
ATOM      8  C   UNL     1       8.463   1.223  -0.683  1.00  0.00     0.004 A 
ATOM      9  C   UNL     1       6.412   0.113  -1.024  1.00  0.00     0.004 A 
ATOM     10  C   UNL     1       9.033   0.506  -1.710  1.00  0.00     0.000 A 
ATOM     11  C   UNL     1       6.984  -0.604  -2.053  1.00  0.00     0.000 A 
ATOM     12  C   UNL     1       8.299  -0.425  -2.417  1.00  0.00     0.000 A 
ENDBRANCH   6   7
ENDBRANCH   1   6
TORSDOF 4
ENDMDL
MODEL 4
REMARK VINA RESULT:      -6.8      3.293      5.154
REMARK SMILES O=C(O)CCc1ccccc1
REMARK SMILES IDX 4 1 2 2 1 3 3 4 5 6 6 7 7 8 11 9 8 10 10 11 9 12
REMARK H PARENT 3 5
REMARK Flexibility Score: inf
ROOT
ATOM      1  C   UNL     1       5.008   1.791   0.689  1.00  0.00     0.127 C 
ENDROOT
BRANCH   1   2
ATOM      2  C   UNL     1       4.488   1.127   1.898  1.00  0.00     0.303 C 
ATOM      3  O   UNL     1       5.178   0.227   2.447  1.00  0.00    -0.252 OA
BRANCH   2   4
ATOM      4  O   UNL     1       3.248   1.464   2.460  1.00  0.00    -0.481 OA
ATOM      5  H   UNL     1       3.221   2.172   3.182  1.00  0.00     0.296 HD
ENDBRANCH   2   4
ENDBRANCH   1   2
BRANCH   1   6
ATOM      6  C   UNL     1       6.520   1.927   0.716  1.00  0.00     0.047 C 
BRANCH   6   7
ATOM      7  C   UNL     1       7.147   1.115  -0.360  1.00  0.00    -0.047 A 
ATOM      8  C   UNL     1       6.389   0.228  -1.110  1.00  0.00     0.004 A 
ATOM      9  C   UNL     1       8.494   1.187  -0.663  1.00  0.00     0.004 A 
ATOM     10  C   UNL     1       6.942  -0.545  -2.105  1.00  0.00     0.000 A 
ATOM     11  C   UNL     1       9.046   0.412  -1.660  1.00  0.00     0.000 A 
ATOM     12  C   UNL     1       8.288  -0.467  -2.399  1.00  0.00     0.000 A 
ENDBRANCH   6   7
ENDBRANCH   1   6
TORSDOF 4
ENDMDL
MODEL 5
REMARK VINA RESULT:      -6.6      1.921      2.240
REMARK SMILES O=C(O)CCc1ccccc1
REMARK SMILES IDX 4 1 2 2 1 3 3 4 5 6 6 7 7 8 11 9 8 10 10 11 9 12
REMARK H PARENT 3 5
REMARK Flexibility Score: inf
ROOT
ATOM      1  C   UNL     1       8.274   0.204  -2.227  1.00  0.00     0.127 C 
ENDROOT
BRANCH   1   2
ATOM      2  C   UNL     1       9.392   0.350  -1.278  1.00  0.00     0.303 C 
ATOM      3  O   UNL     1       9.443  -0.406  -0.271  1.00  0.00    -0.252 OA
BRANCH   2   4
ATOM      4  O   UNL     1      10.406   1.303  -1.457  1.00  0.00    -0.481 OA
ATOM      5  H   UNL     1      10.933   1.291  -2.320  1.00  0.00     0.296 HD
ENDBRANCH   2   4
ENDBRANCH   1   2
BRANCH   1   6
ATOM      6  C   UNL     1       7.117  -0.580  -1.635  1.00  0.00     0.047 C 
BRANCH   6   7
ATOM      7  C   UNL     1       6.351   0.250  -0.669  1.00  0.00    -0.047 A 
ATOM      8  C   UNL     1       5.832   1.479  -1.048  1.00  0.00     0.004 A 
ATOM      9  C   UNL     1       6.124  -0.141   0.638  1.00  0.00     0.004 A 
ATOM     10  C   UNL     1       5.127   2.275  -0.174  1.00  0.00     0.000 A 
ATOM     11  C   UNL     1       5.418   0.657   1.512  1.00  0.00     0.000 A 
ATOM     12  C   UNL     1       4.907   1.877   1.129  1.00  0.00     0.000 A 
ENDBRANCH   6   7
ENDBRANCH   1   6
TORSDOF 4
ENDMDL
