@<TRIPOS>MOLECULE
/home/cewinharhar/GITHUB/reincatalyze/data/processed/docking_pred/2023-Apr-25-2248_maxeplen10_maxtrainstep1000_exh16_gamma099_lrac3e-4_lrcr1e-3/f43d8cd6194682d8f3e5600fbc578d0750565092_ligand_2.pdbqt
 12 12 0 0 0
SMALL
GASTEIGER

@<TRIPOS>ATOM
      1  C          5.0340    1.8000    0.7580 C.3     1  UNL1        0.1270
      2  C          4.4690    1.1150    1.9340 C.2     1  UNL1        0.3030
      3  O          5.1250    0.1830    2.4740 O.2     1  UNL1       -0.2520
      4  O          3.2240    1.4650    2.4760 O.3     1  UNL1       -0.4810
      5  H          2.7160    2.2360    2.0640 H       1  UNL1        0.2960
      6  C          6.5510    1.8480    0.7970 C.3     1  UNL1        0.0470
      7  C          7.1380    1.0490   -0.3100 C.2     1  UNL1       -0.0470
      8  C          8.4630    1.2230   -0.6830 C.2     1  UNL1        0.0040
      9  C          6.4120    0.1130   -1.0240 C.2     1  UNL1        0.0040
     10  C          9.0330    0.5060   -1.7100 C.2     1  UNL1        0.0000
     11  C          6.9840   -0.6040   -2.0530 C.2     1  UNL1        0.0000
     12  C          8.2990   -0.4250   -2.4170 C.2     1  UNL1        0.0000
@<TRIPOS>BOND
     1    12    11    2
     2    12    10    1
     3    11     9    1
     4    10     8    2
     5     9     7    2
     6     8     7    1
     7     7     6    1
     8     1     6    1
     9     1     2    1
    10     2     3    2
    11     2     4    1
    12     5     4    1
