@<TRIPOS>MOLECULE
/home/cewinharhar/GITHUB/reincatalyze/data/processed/docking_pred/2023-Apr-25-2248_maxeplen10_maxtrainstep1000_exh16_gamma099_lrac3e-4_lrcr1e-3/f43d8cd6194682d8f3e5600fbc578d0750565092_ligand_2.pdbqt
 12 12 0 0 0
SMALL
GASTEIGER

@<TRIPOS>ATOM
      1  C          8.4020   -0.6700   -2.1040 C.3     1  UNL1        0.1270
      2  C          8.4030   -1.9190   -2.8850 C.2     1  UNL1        0.3030
      3  O          7.3010   -2.4230   -3.2360 O.2     1  UNL1       -0.2520
      4  O          9.5890   -2.5690   -3.2550 O.3     1  UNL1       -0.4810
      5  H         10.2890   -2.7380   -2.5460 H       1  UNL1        0.2960
      6  C          7.0490    0.0190   -2.1240 C.3     1  UNL1        0.0470
      7  C          6.4860    0.1270   -0.7530 C.2     1  UNL1       -0.0470
      8  C          6.6160   -0.9180    0.1500 C.2     1  UNL1        0.0040
      9  C          5.8050    1.2470   -0.3100 C.2     1  UNL1        0.0040
     10  C          6.0960   -0.8520    1.4230 C.2     1  UNL1        0.0000
     11  C          5.2860    1.3110    0.9650 C.2     1  UNL1        0.0000
     12  C          5.4180    0.2690    1.8550 C.2     1  UNL1        0.0000
@<TRIPOS>BOND
     1     4     2    1
     2     4     5    1
     3     3     2    2
     4     2     1    1
     5     6     1    1
     6     6     7    1
     7     7     9    2
     8     7     8    1
     9     9    11    1
    10     8    10    2
    11    11    12    2
    12    10    12    1
