@<TRIPOS>MOLECULE
/home/cewinharhar/GITHUB/reincatalyze/data/processed/docking_pred/2023-Apr-25-2248_maxeplen10_maxtrainstep1000_exh16_gamma099_lrac3e-4_lrcr1e-3/f43d8cd6194682d8f3e5600fbc578d0750565092_ligand_2.pdbqt
 12 12 0 0 0
SMALL
GASTEIGER

@<TRIPOS>ATOM
      1  C          8.2740    0.2040   -2.2270 C.3     1  UNL1        0.1270
      2  C          9.3920    0.3500   -1.2780 C.2     1  UNL1        0.3030
      3  O          9.4430   -0.4060   -0.2710 O.2     1  UNL1       -0.2520
      4  O         10.4060    1.3030   -1.4570 O.3     1  UNL1       -0.4810
      5  H         10.9330    1.2910   -2.3200 H       1  UNL1        0.2960
      6  C          7.1170   -0.5800   -1.6350 C.3     1  UNL1        0.0470
      7  C          6.3510    0.2500   -0.6690 C.2     1  UNL1       -0.0470
      8  C          5.8320    1.4790   -1.0480 C.2     1  UNL1        0.0040
      9  C          6.1240   -0.1410    0.6380 C.2     1  UNL1        0.0040
     10  C          5.1270    2.2750   -0.1740 C.2     1  UNL1        0.0000
     11  C          5.4180    0.6570    1.5120 C.2     1  UNL1        0.0000
     12  C          4.9070    1.8770    1.1290 C.2     1  UNL1        0.0000
@<TRIPOS>BOND
     1     5     4    1
     2     1     6    1
     3     1     2    1
     4     6     7    1
     5     4     2    1
     6     2     3    2
     7     8     7    2
     8     8    10    1
     9     7     9    1
    10    10    12    2
    11     9    11    2
    12    12    11    1
