@<TRIPOS>MOLECULE
/home/cewinharhar/GITHUB/reincatalyze/data/processed/docking_pred/2023-Apr-25-2248_maxeplen10_maxtrainstep1000_exh16_gamma099_lrac3e-4_lrcr1e-3/f56adf6440abdf94ed5aca5eaefea0329b307251_ligand_2.pdbqt
 12 12 0 0 0
SMALL
GASTEIGER

@<TRIPOS>ATOM
      1  C          8.4390   -0.6760   -2.0960 C.3     1  UNL1        0.1270
      2  C          8.4210   -1.9280   -2.8730 C.2     1  UNL1        0.3030
      3  O          7.3120   -2.4240   -3.2110 O.2     1  UNL1       -0.2520
      4  O          9.5980   -2.5880   -3.2540 O.3     1  UNL1       -0.4810
      5  H         10.3270   -2.0540   -3.7090 H       1  UNL1        0.2960
      6  C          7.1010    0.0420   -2.1340 C.3     1  UNL1        0.0470
      7  C          6.5040    0.1280   -0.7750 C.2     1  UNL1       -0.0470
      8  C          5.8010    1.2570   -0.3820 C.2     1  UNL1        0.0040
      9  C          6.6200   -0.8850    0.1590 C.2     1  UNL1        0.0040
     10  C          5.2450    1.3720    0.8720 C.2     1  UNL1        0.0000
     11  C          6.0630   -0.7690    1.4140 C.2     1  UNL1        0.0000
     12  C          5.3670    0.3550    1.7970 C.2     1  UNL1        0.0000
@<TRIPOS>BOND
     1     5     4    1
     2     4     2    1
     3     3     2    2
     4     2     1    1
     5     6     1    1
     6     6     7    1
     7     7     8    2
     8     7     9    1
     9     8    10    1
    10     9    11    2
    11    10    12    2
    12    11    12    1
