@<TRIPOS>MOLECULE
/home/cewinharhar/GITHUB/reincatalyze/data/processed/docking_pred/2023-Apr-25-2248_maxeplen10_maxtrainstep1000_exh16_gamma099_lrac3e-4_lrcr1e-3/f56adf6440abdf94ed5aca5eaefea0329b307251_ligand_2.pdbqt
 12 12 0 0 0
SMALL
GASTEIGER

@<TRIPOS>ATOM
      1  C          8.4090   -0.6360   -2.1540 C.3     1  UNL1        0.1270
      2  C          8.4280   -1.9080   -2.8970 C.2     1  UNL1        0.3030
      3  O          9.5270   -2.5030   -3.0650 O.2     1  UNL1       -0.2520
      4  O          7.2630   -2.4840   -3.4240 O.3     1  UNL1       -0.4810
      5  H          6.9390   -2.1750   -4.3310 H       1  UNL1        0.2960
      6  C          7.0330    0.0070   -2.1510 C.3     1  UNL1        0.0470
      7  C          6.4910    0.0980   -0.7700 C.2     1  UNL1       -0.0470
      8  C          6.6290   -0.9610    0.1150 C.2     1  UNL1        0.0040
      9  C          5.8240    1.2150   -0.3010 C.2     1  UNL1        0.0040
     10  C          6.1280   -0.9110    1.3960 C.2     1  UNL1        0.0000
     11  C          5.3230    1.2630    0.9830 C.2     1  UNL1        0.0000
     12  C          5.4630    0.2070    1.8550 C.2     1  UNL1        0.0000
@<TRIPOS>BOND
     1     5     4    1
     2     4     2    1
     3     3     2    2
     4     2     1    1
     5     1     6    1
     6     6     7    1
     7     7     9    2
     8     7     8    1
     9     9    11    1
    10     8    10    2
    11    11    12    2
    12    10    12    1
