@<TRIPOS>MOLECULE
/home/cewinharhar/GITHUB/reincatalyze/data/processed/docking_pred/2023-Apr-25-2248_maxeplen10_maxtrainstep1000_exh16_gamma099_lrac3e-4_lrcr1e-3/f56adf6440abdf94ed5aca5eaefea0329b307251_ligand_2.pdbqt
 12 12 0 0 0
SMALL
GASTEIGER

@<TRIPOS>ATOM
      1  C          8.1100   -1.7140    1.2300 C.3     1  UNL1        0.1270
      2  C          8.4950   -2.8460    0.3690 C.2     1  UNL1        0.3030
      3  O          9.2150   -3.7630    0.8490 O.2     1  UNL1       -0.2520
      4  O          8.0850   -2.9420   -0.9680 O.3     1  UNL1       -0.4810
      5  H          7.5950   -2.1600   -1.3810 H       1  UNL1        0.2960
      6  C          6.6050   -1.5950    1.3840 C.3     1  UNL1        0.0470
      7  C          6.1140   -0.3010    0.8410 C.2     1  UNL1       -0.0470
      8  C          6.3810    0.0620   -0.4720 C.2     1  UNL1        0.0040
      9  C          5.3880    0.6010    1.5970 C.2     1  UNL1        0.0040
     10  C          5.9500    1.2570   -1.0010 C.2     1  UNL1        0.0000
     11  C          4.9570    1.7970    1.0650 C.2     1  UNL1        0.0000
     12  C          5.2270    2.1510   -0.2370 C.2     1  UNL1        0.0000
@<TRIPOS>BOND
     1     5     4    1
     2    10     8    1
     3    10    12    2
     4     4     2    1
     5     8     7    2
     6    12    11    1
     7     2     3    2
     8     2     1    1
     9     7     6    1
    10     7     9    1
    11    11     9    2
    12     1     6    1
