@<TRIPOS>MOLECULE
/home/cewinharhar/GITHUB/reincatalyze/data/processed/docking_pred/2023-Apr-25-2248_maxeplen10_maxtrainstep1000_exh16_gamma099_lrac3e-4_lrcr1e-3/f56adf6440abdf94ed5aca5eaefea0329b307251_ligand_2.pdbqt
 12 12 0 0 0
SMALL
GASTEIGER

@<TRIPOS>ATOM
      1  C          8.2690    0.0890   -2.1570 C.3     1  UNL1        0.1270
      2  C          9.3880    0.3450   -1.2330 C.2     1  UNL1        0.3030
      3  O          9.5030   -0.3680   -0.1990 O.2     1  UNL1       -0.2520
      4  O         10.3330    1.3540   -1.4640 O.3     1  UNL1       -0.4810
      5  H         10.5210    1.6310   -2.4180 H       1  UNL1        0.2960
      6  C          7.1510   -0.7020   -1.5000 C.3     1  UNL1        0.0470
      7  C          6.3750    0.1510   -0.5630 C.2     1  UNL1       -0.0470
      8  C          6.1520   -0.2560    0.7450 C.2     1  UNL1        0.0040
      9  C          5.8320    1.3680   -0.9330 C.2     1  UNL1        0.0040
     10  C          5.4290    0.5060    1.6340 C.2     1  UNL1        0.0000
     11  C          5.1080    2.1300   -0.0410 C.2     1  UNL1        0.0000
     12  C          4.8900    1.7190    1.2540 C.2     1  UNL1        0.0000
@<TRIPOS>BOND
     1     5     4    1
     2     1     6    1
     3     1     2    1
     4     6     7    1
     5     4     2    1
     6     2     3    2
     7     9     7    2
     8     9    11    1
     9     7     8    1
    10    11    12    2
    11     8    10    2
    12    12    10    1
