MODEL 1
REMARK VINA RESULT:      -7.3      0.000      0.000
REMARK SMILES O=C(O)CCc1ccccc1
REMARK SMILES IDX 4 1 2 2 1 3 3 4 5 6 6 7 7 8 11 9 8 10 10 11 9 12
REMARK H PARENT 3 5
REMARK Flexibility Score: inf
ROOT
ATOM      1  C   UNL     1       8.409  -0.636  -2.154  1.00  0.00     0.127 C 
ENDROOT
BRANCH   1   2
ATOM      2  C   UNL     1       8.428  -1.908  -2.897  1.00  0.00     0.303 C 
ATOM      3  O   UNL     1       9.527  -2.503  -3.065  1.00  0.00    -0.252 OA
BRANCH   2   4
ATOM      4  O   UNL     1       7.263  -2.484  -3.424  1.00  0.00    -0.481 OA
ATOM      5  H   UNL     1       6.939  -2.175  -4.331  1.00  0.00     0.296 HD
ENDBRANCH   2   4
ENDBRANCH   1   2
BRANCH   1   6
ATOM      6  C   UNL     1       7.033   0.007  -2.151  1.00  0.00     0.047 C 
BRANCH   6   7
ATOM      7  C   UNL     1       6.491   0.098  -0.770  1.00  0.00    -0.047 A 
ATOM      8  C   UNL     1       6.629  -0.961   0.115  1.00  0.00     0.004 A 
ATOM      9  C   UNL     1       5.824   1.215  -0.301  1.00  0.00     0.004 A 
ATOM     10  C   UNL     1       6.128  -0.911   1.396  1.00  0.00     0.000 A 
ATOM     11  C   UNL     1       5.323   1.263   0.983  1.00  0.00     0.000 A 
ATOM     12  C   UNL     1       5.463   0.207   1.855  1.00  0.00     0.000 A 
ENDBRANCH   6   7
ENDBRANCH   1   6
TORSDOF 4
ENDMDL
MODEL 2
REMARK VINA RESULT:      -7.3      0.141      1.725
REMARK SMILES O=C(O)CCc1ccccc1
REMARK SMILES IDX 4 1 2 2 1 3 3 4 5 6 6 7 7 8 11 9 8 10 10 11 9 12
REMARK H PARENT 3 5
REMARK Flexibility Score: inf
ROOT
ATOM      1  C   UNL     1       8.439  -0.676  -2.096  1.00  0.00     0.127 C 
ENDROOT
BRANCH   1   2
ATOM      2  C   UNL     1       8.421  -1.928  -2.873  1.00  0.00     0.303 C 
ATOM      3  O   UNL     1       7.312  -2.424  -3.211  1.00  0.00    -0.252 OA
BRANCH   2   4
ATOM      4  O   UNL     1       9.598  -2.588  -3.254  1.00  0.00    -0.481 OA
ATOM      5  H   UNL     1      10.327  -2.054  -3.709  1.00  0.00     0.296 HD
ENDBRANCH   2   4
ENDBRANCH   1   2
BRANCH   1   6
ATOM      6  C   UNL     1       7.101   0.042  -2.134  1.00  0.00     0.047 C 
BRANCH   6   7
ATOM      7  C   UNL     1       6.504   0.128  -0.775  1.00  0.00    -0.047 A 
ATOM      8  C   UNL     1       5.801   1.257  -0.382  1.00  0.00     0.004 A 
ATOM      9  C   UNL     1       6.620  -0.885   0.159  1.00  0.00     0.004 A 
ATOM     10  C   UNL     1       5.245   1.372   0.872  1.00  0.00     0.000 A 
ATOM     11  C   UNL     1       6.063  -0.769   1.414  1.00  0.00     0.000 A 
ATOM     12  C   UNL     1       5.367   0.355   1.797  1.00  0.00     0.000 A 
ENDBRANCH   6   7
ENDBRANCH   1   6
TORSDOF 4
ENDMDL
MODEL 3
REMARK VINA RESULT:      -6.8      3.393      5.075
REMARK SMILES O=C(O)CCc1ccccc1
REMARK SMILES IDX 4 1 2 2 1 3 3 4 5 6 6 7 7 8 11 9 8 10 10 11 9 12
REMARK H PARENT 3 5
REMARK Flexibility Score: inf
ROOT
ATOM      1  C   UNL     1       5.013   1.827   0.752  1.00  0.00     0.127 C 
ENDROOT
BRANCH   1   2
ATOM      2  C   UNL     1       4.464   1.130   1.928  1.00  0.00     0.303 C 
ATOM      3  O   UNL     1       5.136   0.206   2.461  1.00  0.00    -0.252 OA
BRANCH   2   4
ATOM      4  O   UNL     1       3.217   1.461   2.479  1.00  0.00    -0.481 OA
ATOM      5  H   UNL     1       3.017   1.177   3.429  1.00  0.00     0.296 HD
ENDBRANCH   2   4
ENDBRANCH   1   2
BRANCH   1   6
ATOM      6  C   UNL     1       6.527   1.922   0.796  1.00  0.00     0.047 C 
BRANCH   6   7
ATOM      7  C   UNL     1       7.142   1.142  -0.310  1.00  0.00    -0.047 A 
ATOM      8  C   UNL     1       6.380   0.261  -1.064  1.00  0.00     0.004 A 
ATOM      9  C   UNL     1       8.482   1.240  -0.640  1.00  0.00     0.004 A 
ATOM     10  C   UNL     1       6.922  -0.483  -2.087  1.00  0.00     0.000 A 
ATOM     11  C   UNL     1       9.023   0.494  -1.665  1.00  0.00     0.000 A 
ATOM     12  C   UNL     1       8.261  -0.379  -2.408  1.00  0.00     0.000 A 
ENDBRANCH   6   7
ENDBRANCH   1   6
TORSDOF 4
ENDMDL
MODEL 4
REMARK VINA RESULT:      -6.6      1.949      2.336
REMARK SMILES O=C(O)CCc1ccccc1
REMARK SMILES IDX 4 1 2 2 1 3 3 4 5 6 6 7 7 8 11 9 8 10 10 11 9 12
REMARK H PARENT 3 5
REMARK Flexibility Score: inf
ROOT
ATOM      1  C   UNL     1       8.269   0.089  -2.157  1.00  0.00     0.127 C 
ENDROOT
BRANCH   1   2
ATOM      2  C   UNL     1       9.388   0.345  -1.233  1.00  0.00     0.303 C 
ATOM      3  O   UNL     1       9.503  -0.368  -0.199  1.00  0.00    -0.252 OA
BRANCH   2   4
ATOM      4  O   UNL     1      10.333   1.354  -1.464  1.00  0.00    -0.481 OA
ATOM      5  H   UNL     1      10.521   1.631  -2.418  1.00  0.00     0.296 HD
ENDBRANCH   2   4
ENDBRANCH   1   2
BRANCH   1   6
ATOM      6  C   UNL     1       7.151  -0.702  -1.500  1.00  0.00     0.047 C 
BRANCH   6   7
ATOM      7  C   UNL     1       6.375   0.151  -0.563  1.00  0.00    -0.047 A 
ATOM      8  C   UNL     1       6.152  -0.256   0.745  1.00  0.00     0.004 A 
ATOM      9  C   UNL     1       5.832   1.368  -0.933  1.00  0.00     0.004 A 
ATOM     10  C   UNL     1       5.429   0.506   1.634  1.00  0.00     0.000 A 
ATOM     11  C   UNL     1       5.108   2.130  -0.041  1.00  0.00     0.000 A 
ATOM     12  C   UNL     1       4.890   1.719   1.254  1.00  0.00     0.000 A 
ENDBRANCH   6   7
ENDBRANCH   1   6
TORSDOF 4
ENDMDL
MODEL 5
REMARK VINA RESULT:      -6.6      1.883      2.877
REMARK SMILES O=C(O)CCc1ccccc1
REMARK SMILES IDX 4 1 2 2 1 3 3 4 5 6 6 7 7 8 11 9 8 10 10 11 9 12
REMARK H PARENT 3 5
REMARK Flexibility Score: inf
ROOT
ATOM      1  C   UNL     1       8.110  -1.714   1.230  1.00  0.00     0.127 C 
ENDROOT
BRANCH   1   2
ATOM      2  C   UNL     1       8.495  -2.846   0.369  1.00  0.00     0.303 C 
ATOM      3  O   UNL     1       9.215  -3.763   0.849  1.00  0.00    -0.252 OA
BRANCH   2   4
ATOM      4  O   UNL     1       8.085  -2.942  -0.968  1.00  0.00    -0.481 OA
ATOM      5  H   UNL     1       7.595  -2.160  -1.381  1.00  0.00     0.296 HD
ENDBRANCH   2   4
ENDBRANCH   1   2
BRANCH   1   6
ATOM      6  C   UNL     1       6.605  -1.595   1.384  1.00  0.00     0.047 C 
BRANCH   6   7
ATOM      7  C   UNL     1       6.114  -0.301   0.841  1.00  0.00    -0.047 A 
ATOM      8  C   UNL     1       6.381   0.062  -0.472  1.00  0.00     0.004 A 
ATOM      9  C   UNL     1       5.388   0.601   1.597  1.00  0.00     0.004 A 
ATOM     10  C   UNL     1       5.950   1.257  -1.001  1.00  0.00     0.000 A 
ATOM     11  C   UNL     1       4.957   1.797   1.065  1.00  0.00     0.000 A 
ATOM     12  C   UNL     1       5.227   2.151  -0.237  1.00  0.00     0.000 A 
ENDBRANCH   6   7
ENDBRANCH   1   6
TORSDOF 4
ENDMDL
