@<TRIPOS>MOLECULE
/home/cewinharhar/GITHUB/reincatalyze/data/processed/docking_pred/2023-Apr-25-2248_maxeplen10_maxtrainstep1000_exh16_gamma099_lrac3e-4_lrcr1e-3/f56adf6440abdf94ed5aca5eaefea0329b307251_ligand_2.pdbqt
 12 12 0 0 0
SMALL
GASTEIGER

@<TRIPOS>ATOM
      1  C          5.0130    1.8270    0.7520 C.3     1  UNL1        0.1270
      2  C          4.4640    1.1300    1.9280 C.2     1  UNL1        0.3030
      3  O          5.1360    0.2060    2.4610 O.2     1  UNL1       -0.2520
      4  O          3.2170    1.4610    2.4790 O.3     1  UNL1       -0.4810
      5  H          3.0170    1.1770    3.4290 H       1  UNL1        0.2960
      6  C          6.5270    1.9220    0.7960 C.3     1  UNL1        0.0470
      7  C          7.1420    1.1420   -0.3100 C.2     1  UNL1       -0.0470
      8  C          6.3800    0.2610   -1.0640 C.2     1  UNL1        0.0040
      9  C          8.4820    1.2400   -0.6400 C.2     1  UNL1        0.0040
     10  C          6.9220   -0.4830   -2.0870 C.2     1  UNL1        0.0000
     11  C          9.0230    0.4940   -1.6650 C.2     1  UNL1        0.0000
     12  C          8.2610   -0.3790   -2.4080 C.2     1  UNL1        0.0000
@<TRIPOS>BOND
     1    12    10    2
     2    12    11    1
     3    10     8    1
     4    11     9    2
     5     8     7    2
     6     9     7    1
     7     7     6    1
     8     1     6    1
     9     1     2    1
    10     2     3    2
    11     2     4    1
    12     4     5    1
