@<TRIPOS>MOLECULE
/home/cewinharhar/GITHUB/reincatalyze/data/processed/docking_pred/2023-Apr-25-2248_maxeplen10_maxtrainstep1000_exh16_gamma099_lrac3e-4_lrcr1e-3/f5d21a1fca5b46740ede221944c3c0743e15dd7f_ligand_2.pdbqt
 12 12 0 0 0
SMALL
GASTEIGER

@<TRIPOS>ATOM
      1  C          8.4200   -0.6420   -2.1450 C.3     1  UNL1        0.1270
      2  C          8.4500   -1.9090   -2.8970 C.2     1  UNL1        0.3030
      3  O          9.5540   -2.4920   -3.0730 O.2     1  UNL1       -0.2520
      4  O          7.2880   -2.4930   -3.4240 O.3     1  UNL1       -0.4810
      5  H          6.8790   -2.0890   -4.2560 H       1  UNL1        0.2960
      6  C          7.0360   -0.0190   -2.1250 C.3     1  UNL1        0.0470
      7  C          6.5040    0.0510   -0.7390 C.2     1  UNL1       -0.0470
      8  C          6.6340   -1.0280    0.1240 C.2     1  UNL1        0.0040
      9  C          5.8550    1.1660   -0.2410 C.2     1  UNL1        0.0040
     10  C          6.1430   -0.9990    1.4090 C.2     1  UNL1        0.0000
     11  C          5.3640    1.1930    1.0460 C.2     1  UNL1        0.0000
     12  C          5.4950    0.1180    1.8960 C.2     1  UNL1        0.0000
@<TRIPOS>BOND
     1     5     4    1
     2     4     2    1
     3     3     2    2
     4     2     1    1
     5     1     6    1
     6     6     7    1
     7     7     9    2
     8     7     8    1
     9     9    11    1
    10     8    10    2
    11    11    12    2
    12    10    12    1
