MODEL 1
REMARK VINA RESULT:      -7.3      0.000      0.000
REMARK SMILES O=C(O)CCc1ccccc1
REMARK SMILES IDX 4 1 2 2 1 3 3 4 5 6 6 7 7 8 11 9 8 10 10 11 9 12
REMARK H PARENT 3 5
REMARK Flexibility Score: inf
ROOT
ATOM      1  C   UNL     1       8.415  -0.704  -2.082  1.00  0.00     0.127 C 
ENDROOT
BRANCH   1   2
ATOM      2  C   UNL     1       8.432  -1.934  -2.893  1.00  0.00     0.303 C 
ATOM      3  O   UNL     1       9.532  -2.515  -3.099  1.00  0.00    -0.252 OA
BRANCH   2   4
ATOM      4  O   UNL     1       7.266  -2.484  -3.443  1.00  0.00    -0.481 OA
ATOM      5  H   UNL     1       6.538  -1.858  -3.759  1.00  0.00     0.296 HD
ENDBRANCH   2   4
ENDBRANCH   1   2
BRANCH   1   6
ATOM      6  C   UNL     1       7.055  -0.028  -2.095  1.00  0.00     0.047 C 
BRANCH   6   7
ATOM      7  C   UNL     1       6.488   0.052  -0.723  1.00  0.00    -0.047 A 
ATOM      8  C   UNL     1       5.833   1.198  -0.294  1.00  0.00     0.004 A 
ATOM      9  C   UNL     1       6.586  -0.983   0.189  1.00  0.00     0.004 A 
ATOM     10  C   UNL     1       5.307   1.307   0.973  1.00  0.00     0.000 A 
ATOM     11  C   UNL     1       6.058  -0.872   1.457  1.00  0.00     0.000 A 
ATOM     12  C   UNL     1       5.411   0.269   1.876  1.00  0.00     0.000 A 
ENDBRANCH   6   7
ENDBRANCH   1   6
TORSDOF 4
ENDMDL
MODEL 2
REMARK VINA RESULT:      -7.3      0.097      1.423
REMARK SMILES O=C(O)CCc1ccccc1
REMARK SMILES IDX 4 1 2 2 1 3 3 4 5 6 6 7 7 8 11 9 8 10 10 11 9 12
REMARK H PARENT 3 5
REMARK Flexibility Score: inf
ROOT
ATOM      1  C   UNL     1       8.420  -0.642  -2.145  1.00  0.00     0.127 C 
ENDROOT
BRANCH   1   2
ATOM      2  C   UNL     1       8.450  -1.909  -2.897  1.00  0.00     0.303 C 
ATOM      3  O   UNL     1       9.554  -2.492  -3.073  1.00  0.00    -0.252 OA
BRANCH   2   4
ATOM      4  O   UNL     1       7.288  -2.493  -3.424  1.00  0.00    -0.481 OA
ATOM      5  H   UNL     1       6.879  -2.089  -4.256  1.00  0.00     0.296 HD
ENDBRANCH   2   4
ENDBRANCH   1   2
BRANCH   1   6
ATOM      6  C   UNL     1       7.036  -0.019  -2.125  1.00  0.00     0.047 C 
BRANCH   6   7
ATOM      7  C   UNL     1       6.504   0.051  -0.739  1.00  0.00    -0.047 A 
ATOM      8  C   UNL     1       6.634  -1.028   0.124  1.00  0.00     0.004 A 
ATOM      9  C   UNL     1       5.855   1.166  -0.241  1.00  0.00     0.004 A 
ATOM     10  C   UNL     1       6.143  -0.999   1.409  1.00  0.00     0.000 A 
ATOM     11  C   UNL     1       5.364   1.193   1.046  1.00  0.00     0.000 A 
ATOM     12  C   UNL     1       5.495   0.118   1.896  1.00  0.00     0.000 A 
ENDBRANCH   6   7
ENDBRANCH   1   6
TORSDOF 4
ENDMDL
MODEL 3
REMARK VINA RESULT:      -6.8      3.397      5.086
REMARK SMILES O=C(O)CCc1ccccc1
REMARK SMILES IDX 4 1 2 2 1 3 3 4 5 6 6 7 7 8 11 9 8 10 10 11 9 12
REMARK H PARENT 3 5
REMARK Flexibility Score: inf
ROOT
ATOM      1  C   UNL     1       4.990   1.766   0.731  1.00  0.00     0.127 C 
ENDROOT
BRANCH   1   2
ATOM      2  C   UNL     1       4.456   1.099   1.931  1.00  0.00     0.303 C 
ATOM      3  O   UNL     1       5.132   0.183   2.475  1.00  0.00    -0.252 OA
BRANCH   2   4
ATOM      4  O   UNL     1       3.220   1.448   2.493  1.00  0.00    -0.481 OA
ATOM      5  H   UNL     1       2.912   2.409   2.426  1.00  0.00     0.296 HD
ENDBRANCH   2   4
ENDBRANCH   1   2
BRANCH   1   6
ATOM      6  C   UNL     1       6.505   1.872   0.760  1.00  0.00     0.047 C 
BRANCH   6   7
ATOM      7  C   UNL     1       7.116   1.063  -0.327  1.00  0.00    -0.047 A 
ATOM      8  C   UNL     1       8.456   1.216  -0.654  1.00  0.00     0.004 A 
ATOM      9  C   UNL     1       6.400   0.140  -1.066  1.00  0.00     0.004 A 
ATOM     10  C   UNL     1       9.049   0.489  -1.661  1.00  0.00     0.000 A 
ATOM     11  C   UNL     1       6.996  -0.587  -2.074  1.00  0.00     0.000 A 
ATOM     12  C   UNL     1       8.326  -0.429  -2.394  1.00  0.00     0.000 A 
ENDBRANCH   6   7
ENDBRANCH   1   6
TORSDOF 4
ENDMDL
MODEL 4
REMARK VINA RESULT:      -6.6      1.879      2.891
REMARK SMILES O=C(O)CCc1ccccc1
REMARK SMILES IDX 4 1 2 2 1 3 3 4 5 6 6 7 7 8 11 9 8 10 10 11 9 12
REMARK H PARENT 3 5
REMARK Flexibility Score: inf
ROOT
ATOM      1  C   UNL     1       8.143  -1.696   1.148  1.00  0.00     0.127 C 
ENDROOT
BRANCH   1   2
ATOM      2  C   UNL     1       8.503  -2.859   0.318  1.00  0.00     0.303 C 
ATOM      3  O   UNL     1       9.178  -3.793   0.832  1.00  0.00    -0.252 OA
BRANCH   2   4
ATOM      4  O   UNL     1       8.120  -2.966  -1.027  1.00  0.00    -0.481 OA
ATOM      5  H   UNL     1       7.233  -2.570  -1.310  1.00  0.00     0.296 HD
ENDBRANCH   2   4
ENDBRANCH   1   2
BRANCH   1   6
ATOM      6  C   UNL     1       6.643  -1.583   1.357  1.00  0.00     0.047 C 
BRANCH   6   7
ATOM      7  C   UNL     1       6.128  -0.292   0.830  1.00  0.00    -0.047 A 
ATOM      8  C   UNL     1       6.397   0.098  -0.474  1.00  0.00     0.004 A 
ATOM      9  C   UNL     1       5.376   0.581   1.594  1.00  0.00     0.004 A 
ATOM     10  C   UNL     1       5.943   1.291  -0.988  1.00  0.00     0.000 A 
ATOM     11  C   UNL     1       4.922   1.776   1.078  1.00  0.00     0.000 A 
ATOM     12  C   UNL     1       5.194   2.156  -0.217  1.00  0.00     0.000 A 
ENDBRANCH   6   7
ENDBRANCH   1   6
TORSDOF 4
ENDMDL
MODEL 5
REMARK VINA RESULT:      -6.5      2.076      2.397
REMARK SMILES O=C(O)CCc1ccccc1
REMARK SMILES IDX 4 1 2 2 1 3 3 4 5 6 6 7 7 8 11 9 8 10 10 11 9 12
REMARK H PARENT 3 5
REMARK Flexibility Score: inf
ROOT
ATOM      1  C   UNL     1       8.485   0.702  -1.632  1.00  0.00     0.127 C 
ENDROOT
BRANCH   1   2
ATOM      2  C   UNL     1       9.648   0.309  -0.818  1.00  0.00     0.303 C 
ATOM      3  O   UNL     1       9.486  -0.517   0.122  1.00  0.00    -0.252 OA
BRANCH   2   4
ATOM      4  O   UNL     1      10.932   0.821  -1.051  1.00  0.00    -0.481 OA
ATOM      5  H   UNL     1      11.034   1.597  -1.692  1.00  0.00     0.296 HD
ENDBRANCH   2   4
ENDBRANCH   1   2
BRANCH   1   6
ATOM      6  C   UNL     1       7.299  -0.224  -1.425  1.00  0.00     0.047 C 
BRANCH   6   7
ATOM      7  C   UNL     1       6.410   0.283  -0.347  1.00  0.00    -0.047 A 
ATOM      8  C   UNL     1       5.764   1.504  -0.478  1.00  0.00     0.004 A 
ATOM      9  C   UNL     1       6.188  -0.411   0.829  1.00  0.00     0.004 A 
ATOM     10  C   UNL     1       4.943   2.005   0.506  1.00  0.00     0.000 A 
ATOM     11  C   UNL     1       5.366   0.093   1.813  1.00  0.00     0.000 A 
ATOM     12  C   UNL     1       4.729   1.305   1.676  1.00  0.00     0.000 A 
ENDBRANCH   6   7
ENDBRANCH   1   6
TORSDOF 4
ENDMDL
