@<TRIPOS>MOLECULE
/home/cewinharhar/GITHUB/reincatalyze/data/processed/docking_pred/2023-Apr-25-2248_maxeplen10_maxtrainstep1000_exh16_gamma099_lrac3e-4_lrcr1e-3/f5d21a1fca5b46740ede221944c3c0743e15dd7f_ligand_2.pdbqt
 12 12 0 0 0
SMALL
GASTEIGER

@<TRIPOS>ATOM
      1  C          8.4150   -0.7040   -2.0820 C.3     1  UNL1        0.1270
      2  C          8.4320   -1.9340   -2.8930 C.2     1  UNL1        0.3030
      3  O          9.5320   -2.5150   -3.0990 O.2     1  UNL1       -0.2520
      4  O          7.2660   -2.4840   -3.4430 O.3     1  UNL1       -0.4810
      5  H          6.5380   -1.8580   -3.7590 H       1  UNL1        0.2960
      6  C          7.0550   -0.0280   -2.0950 C.3     1  UNL1        0.0470
      7  C          6.4880    0.0520   -0.7230 C.2     1  UNL1       -0.0470
      8  C          5.8330    1.1980   -0.2940 C.2     1  UNL1        0.0040
      9  C          6.5860   -0.9830    0.1890 C.2     1  UNL1        0.0040
     10  C          5.3070    1.3070    0.9730 C.2     1  UNL1        0.0000
     11  C          6.0580   -0.8720    1.4570 C.2     1  UNL1        0.0000
     12  C          5.4110    0.2690    1.8760 C.2     1  UNL1        0.0000
@<TRIPOS>BOND
     1     5     4    1
     2     4     2    1
     3     3     2    2
     4     2     1    1
     5     6     1    1
     6     6     7    1
     7     7     8    2
     8     7     9    1
     9     8    10    1
    10     9    11    2
    11    10    12    2
    12    11    12    1
