@<TRIPOS>MOLECULE
/home/cewinharhar/GITHUB/reincatalyze/data/processed/docking_pred/2023-Apr-25-2248_maxeplen10_maxtrainstep1000_exh16_gamma099_lrac3e-4_lrcr1e-3/f5d21a1fca5b46740ede221944c3c0743e15dd7f_ligand_2.pdbqt
 12 12 0 0 0
SMALL
GASTEIGER

@<TRIPOS>ATOM
      1  C          8.1430   -1.6960    1.1480 C.3     1  UNL1        0.1270
      2  C          8.5030   -2.8590    0.3180 C.2     1  UNL1        0.3030
      3  O          9.1780   -3.7930    0.8320 O.2     1  UNL1       -0.2520
      4  O          8.1200   -2.9660   -1.0270 O.3     1  UNL1       -0.4810
      5  H          7.2330   -2.5700   -1.3100 H       1  UNL1        0.2960
      6  C          6.6430   -1.5830    1.3570 C.3     1  UNL1        0.0470
      7  C          6.1280   -0.2920    0.8300 C.2     1  UNL1       -0.0470
      8  C          6.3970    0.0980   -0.4740 C.2     1  UNL1        0.0040
      9  C          5.3760    0.5810    1.5940 C.2     1  UNL1        0.0040
     10  C          5.9430    1.2910   -0.9880 C.2     1  UNL1        0.0000
     11  C          4.9220    1.7760    1.0780 C.2     1  UNL1        0.0000
     12  C          5.1940    2.1560   -0.2170 C.2     1  UNL1        0.0000
@<TRIPOS>BOND
     1     5     4    1
     2     4     2    1
     3    10     8    1
     4    10    12    2
     5     8     7    2
     6    12    11    1
     7     2     3    2
     8     2     1    1
     9     7     6    1
    10     7     9    1
    11    11     9    2
    12     1     6    1
