@<TRIPOS>MOLECULE
/home/cewinharhar/GITHUB/reincatalyze/data/processed/docking_pred/2023-Apr-25-2248_maxeplen10_maxtrainstep1000_exh16_gamma099_lrac3e-4_lrcr1e-3/f5d21a1fca5b46740ede221944c3c0743e15dd7f_ligand_2.pdbqt
 12 12 0 0 0
SMALL
GASTEIGER

@<TRIPOS>ATOM
      1  C          4.9900    1.7660    0.7310 C.3     1  UNL1        0.1270
      2  C          4.4560    1.0990    1.9310 C.2     1  UNL1        0.3030
      3  O          5.1320    0.1830    2.4750 O.2     1  UNL1       -0.2520
      4  O          3.2200    1.4480    2.4930 O.3     1  UNL1       -0.4810
      5  H          2.9120    2.4090    2.4260 H       1  UNL1        0.2960
      6  C          6.5050    1.8720    0.7600 C.3     1  UNL1        0.0470
      7  C          7.1160    1.0630   -0.3270 C.2     1  UNL1       -0.0470
      8  C          8.4560    1.2160   -0.6540 C.2     1  UNL1        0.0040
      9  C          6.4000    0.1400   -1.0660 C.2     1  UNL1        0.0040
     10  C          9.0490    0.4890   -1.6610 C.2     1  UNL1        0.0000
     11  C          6.9960   -0.5870   -2.0740 C.2     1  UNL1        0.0000
     12  C          8.3260   -0.4290   -2.3940 C.2     1  UNL1        0.0000
@<TRIPOS>BOND
     1    12    11    2
     2    12    10    1
     3    11     9    1
     4    10     8    2
     5     9     7    2
     6     8     7    1
     7     7     6    1
     8     1     6    1
     9     1     2    1
    10     2     3    2
    11     2     4    1
    12     5     4    1
