@<TRIPOS>MOLECULE
/home/cewinharhar/GITHUB/reincatalyze/data/processed/docking_pred/2023-Apr-25-2248_maxeplen10_maxtrainstep1000_exh16_gamma099_lrac3e-4_lrcr1e-3/f5d21a1fca5b46740ede221944c3c0743e15dd7f_ligand_2.pdbqt
 12 12 0 0 0
SMALL
GASTEIGER

@<TRIPOS>ATOM
      1  C          8.4850    0.7020   -1.6320 C.3     1  UNL1        0.1270
      2  C          9.6480    0.3090   -0.8180 C.2     1  UNL1        0.3030
      3  O          9.4860   -0.5170    0.1220 O.2     1  UNL1       -0.2520
      4  O         10.9320    0.8210   -1.0510 O.3     1  UNL1       -0.4810
      5  H         11.0340    1.5970   -1.6920 H       1  UNL1        0.2960
      6  C          7.2990   -0.2240   -1.4250 C.3     1  UNL1        0.0470
      7  C          6.4100    0.2830   -0.3470 C.2     1  UNL1       -0.0470
      8  C          5.7640    1.5040   -0.4780 C.2     1  UNL1        0.0040
      9  C          6.1880   -0.4110    0.8290 C.2     1  UNL1        0.0040
     10  C          4.9430    2.0050    0.5060 C.2     1  UNL1        0.0000
     11  C          5.3660    0.0930    1.8130 C.2     1  UNL1        0.0000
     12  C          4.7290    1.3050    1.6760 C.2     1  UNL1        0.0000
@<TRIPOS>BOND
     1     5     4    1
     2     1     6    1
     3     1     2    1
     4     6     7    1
     5     4     2    1
     6     2     3    2
     7     8     7    2
     8     8    10    1
     9     7     9    1
    10    10    12    2
    11     9    11    2
    12    12    11    1
