@<TRIPOS>MOLECULE
/home/cewinharhar/GITHUB/reincatalyze/data/processed/docking_pred/2023-Apr-25-2248_maxeplen10_maxtrainstep1000_exh16_gamma099_lrac3e-4_lrcr1e-3/f5fb071253116e33fb6a6057d91faa3d89d34546_ligand_2.pdbqt
 12 12 0 0 0
SMALL
GASTEIGER

@<TRIPOS>ATOM
      1  C          8.1490   -1.6810    1.1370 C.3     1  UNL1        0.1270
      2  C          8.5060   -2.8530    0.3180 C.2     1  UNL1        0.3030
      3  O          9.1850   -3.7790    0.8380 O.2     1  UNL1       -0.2520
      4  O          8.1140   -2.9760   -1.0230 O.3     1  UNL1       -0.4810
      5  H          7.3160   -3.5560   -1.2420 H       1  UNL1        0.2960
      6  C          6.6500   -1.5670    1.3540 C.3     1  UNL1        0.0470
      7  C          6.1320   -0.2780    0.8270 C.2     1  UNL1       -0.0470
      8  C          6.3820    0.1030   -0.4840 C.2     1  UNL1        0.0040
      9  C          5.3950    0.6030    1.5970 C.2     1  UNL1        0.0040
     10  C          5.9260    1.2950   -0.9980 C.2     1  UNL1        0.0000
     11  C          4.9380    1.7970    1.0810 C.2     1  UNL1        0.0000
     12  C          5.1920    2.1680   -0.2200 C.2     1  UNL1        0.0000
@<TRIPOS>BOND
     1     5     4    1
     2     4     2    1
     3    10     8    1
     4    10    12    2
     5     8     7    2
     6    12    11    1
     7     2     3    2
     8     2     1    1
     9     7     6    1
    10     7     9    1
    11    11     9    2
    12     1     6    1
