@<TRIPOS>MOLECULE
/home/cewinharhar/GITHUB/reincatalyze/data/processed/docking_pred/2023-Apr-25-2248_maxeplen10_maxtrainstep1000_exh16_gamma099_lrac3e-4_lrcr1e-3/f5fb071253116e33fb6a6057d91faa3d89d34546_ligand_2.pdbqt
 12 12 0 0 0
SMALL
GASTEIGER

@<TRIPOS>ATOM
      1  C          8.4060   -0.6440   -2.1280 C.3     1  UNL1        0.1270
      2  C          8.4350   -1.8990   -2.8990 C.2     1  UNL1        0.3030
      3  O          9.5420   -2.4730   -3.0930 O.2     1  UNL1       -0.2520
      4  O          7.2730   -2.4820   -3.4250 O.3     1  UNL1       -0.4810
      5  H          7.3670   -3.1680   -4.1610 H       1  UNL1        0.2960
      6  C          7.0240   -0.0140   -2.1100 C.3     1  UNL1        0.0470
      7  C          6.4840    0.0460   -0.7270 C.2     1  UNL1       -0.0470
      8  C          5.8320    1.1830   -0.2710 C.2     1  UNL1        0.0040
      9  C          6.6050   -0.9990    0.1700 C.2     1  UNL1        0.0040
     10  C          5.3300    1.2740    1.0070 C.2     1  UNL1        0.0000
     11  C          6.1020   -0.9070    1.4500 C.2     1  UNL1        0.0000
     12  C          5.4570    0.2250    1.8960 C.2     1  UNL1        0.0000
@<TRIPOS>BOND
     1     5     4    1
     2     4     2    1
     3     3     2    2
     4     2     1    1
     5     1     6    1
     6     6     7    1
     7     7     8    2
     8     7     9    1
     9     8    10    1
    10     9    11    2
    11    10    12    2
    12    11    12    1
