@<TRIPOS>MOLECULE
/home/cewinharhar/GITHUB/reincatalyze/data/processed/docking_pred/2023-Apr-25-2248_maxeplen10_maxtrainstep1000_exh16_gamma099_lrac3e-4_lrcr1e-3/f5fb071253116e33fb6a6057d91faa3d89d34546_ligand_2.pdbqt
 12 12 0 0 0
SMALL
GASTEIGER

@<TRIPOS>ATOM
      1  C          8.3920   -0.6650   -2.1050 C.3     1  UNL1        0.1270
      2  C          8.3930   -1.9170   -2.8820 C.2     1  UNL1        0.3030
      3  O          7.2920   -2.4140   -3.2430 O.2     1  UNL1       -0.2520
      4  O          9.5790   -2.5760   -3.2360 O.3     1  UNL1       -0.4810
      5  H          9.8930   -2.5250   -4.1950 H       1  UNL1        0.2960
      6  C          7.0410    0.0270   -2.1330 C.3     1  UNL1        0.0470
      7  C          6.4740    0.1440   -0.7640 C.2     1  UNL1       -0.0470
      8  C          6.6140   -0.8890    0.1510 C.2     1  UNL1        0.0040
      9  C          5.7810    1.2610   -0.3340 C.2     1  UNL1        0.0040
     10  C          6.0920   -0.8150    1.4220 C.2     1  UNL1        0.0000
     11  C          5.2590    1.3340    0.9390 C.2     1  UNL1        0.0000
     12  C          5.4000    0.3040    1.8410 C.2     1  UNL1        0.0000
@<TRIPOS>BOND
     1     5     4    1
     2     3     2    2
     3     4     2    1
     4     2     1    1
     5     6     1    1
     6     6     7    1
     7     7     9    2
     8     7     8    1
     9     9    11    1
    10     8    10    2
    11    11    12    2
    12    10    12    1
