@<TRIPOS>MOLECULE
/home/cewinharhar/GITHUB/reincatalyze/data/processed/docking_pred/2023-Apr-25-2248_maxeplen10_maxtrainstep1000_exh16_gamma099_lrac3e-4_lrcr1e-3/f5fb071253116e33fb6a6057d91faa3d89d34546_ligand_2.pdbqt
 12 12 0 0 0
SMALL
GASTEIGER

@<TRIPOS>ATOM
      1  C          8.2150    0.4100   -2.1660 C.3     1  UNL1        0.1270
      2  C          9.3760    0.4570   -1.2600 C.2     1  UNL1        0.3030
      3  O          9.4500   -0.3760   -0.3150 O.2     1  UNL1       -0.2520
      4  O         10.4050    1.3970   -1.4110 O.3     1  UNL1       -0.4810
      5  H         11.2310    1.3070   -0.8350 H       1  UNL1        0.2960
      6  C          7.1140   -0.4950   -1.6420 C.3     1  UNL1        0.0470
      7  C          6.3550    0.1670   -0.5490 C.2     1  UNL1       -0.0470
      8  C          5.7850    1.4180   -0.7410 C.2     1  UNL1        0.0040
      9  C          6.1840   -0.4060    0.6980 C.2     1  UNL1        0.0040
     10  C          5.0860    2.0620    0.2540 C.2     1  UNL1        0.0000
     11  C          5.4820    0.2400    1.6930 C.2     1  UNL1        0.0000
     12  C          4.9210    1.4820    1.4960 C.2     1  UNL1        0.0000
@<TRIPOS>BOND
     1     1     6    1
     2     1     2    1
     3     6     7    1
     4     4     2    1
     5     4     5    1
     6     2     3    2
     7     8     7    2
     8     8    10    1
     9     7     9    1
    10    10    12    2
    11     9    11    2
    12    12    11    1
