@<TRIPOS>MOLECULE
/home/cewinharhar/GITHUB/reincatalyze/data/processed/docking_pred/2023-Apr-25-2248_maxeplen10_maxtrainstep1000_exh16_gamma099_lrac3e-4_lrcr1e-3/f5fb071253116e33fb6a6057d91faa3d89d34546_ligand_2.pdbqt
 12 12 0 0 0
SMALL
GASTEIGER

@<TRIPOS>ATOM
      1  C          4.9860    1.7390    0.7110 C.3     1  UNL1        0.1270
      2  C          4.4570    1.0950    1.9270 C.2     1  UNL1        0.3030
      3  O          5.1350    0.1900    2.4850 O.2     1  UNL1       -0.2520
      4  O          3.2230    1.4550    2.4870 O.3     1  UNL1       -0.4810
      5  H          3.1090    2.3950    2.8420 H       1  UNL1        0.2960
      6  C          6.4990    1.8660    0.7410 C.3     1  UNL1        0.0470
      7  C          7.1230    1.0570   -0.3380 C.2     1  UNL1       -0.0470
      8  C          8.4640    1.2170   -0.6570 C.2     1  UNL1        0.0040
      9  C          6.4180    0.1250   -1.0780 C.2     1  UNL1        0.0040
     10  C          9.0680    0.4900   -1.6570 C.2     1  UNL1        0.0000
     11  C          7.0250   -0.6010   -2.0800 C.2     1  UNL1        0.0000
     12  C          8.3550   -0.4360   -2.3910 C.2     1  UNL1        0.0000
@<TRIPOS>BOND
     1    12    11    2
     2    12    10    1
     3    11     9    1
     4    10     8    2
     5     9     7    2
     6     8     7    1
     7     7     6    1
     8     1     6    1
     9     1     2    1
    10     2     3    2
    11     2     4    1
    12     4     5    1
