MODEL 1
REMARK VINA RESULT:      -7.3      0.000      0.000
REMARK SMILES O=C(O)CCc1ccccc1
REMARK SMILES IDX 4 1 2 2 1 3 3 4 5 6 6 7 7 8 11 9 8 10 10 11 9 12
REMARK H PARENT 3 5
REMARK Flexibility Score: inf
ROOT
ATOM      1  C   UNL     1       8.406  -0.644  -2.128  1.00  0.00     0.127 C 
ENDROOT
BRANCH   1   2
ATOM      2  C   UNL     1       8.435  -1.899  -2.899  1.00  0.00     0.303 C 
ATOM      3  O   UNL     1       9.542  -2.473  -3.093  1.00  0.00    -0.252 OA
BRANCH   2   4
ATOM      4  O   UNL     1       7.273  -2.482  -3.425  1.00  0.00    -0.481 OA
ATOM      5  H   UNL     1       7.367  -3.168  -4.161  1.00  0.00     0.296 HD
ENDBRANCH   2   4
ENDBRANCH   1   2
BRANCH   1   6
ATOM      6  C   UNL     1       7.024  -0.014  -2.110  1.00  0.00     0.047 C 
BRANCH   6   7
ATOM      7  C   UNL     1       6.484   0.046  -0.727  1.00  0.00    -0.047 A 
ATOM      8  C   UNL     1       5.832   1.183  -0.271  1.00  0.00     0.004 A 
ATOM      9  C   UNL     1       6.605  -0.999   0.170  1.00  0.00     0.004 A 
ATOM     10  C   UNL     1       5.330   1.274   1.007  1.00  0.00     0.000 A 
ATOM     11  C   UNL     1       6.102  -0.907   1.450  1.00  0.00     0.000 A 
ATOM     12  C   UNL     1       5.457   0.225   1.896  1.00  0.00     0.000 A 
ENDBRANCH   6   7
ENDBRANCH   1   6
TORSDOF 4
ENDMDL
MODEL 2
REMARK VINA RESULT:      -7.3      0.116      1.724
REMARK SMILES O=C(O)CCc1ccccc1
REMARK SMILES IDX 4 1 2 2 1 3 3 4 5 6 6 7 7 8 11 9 8 10 10 11 9 12
REMARK H PARENT 3 5
REMARK Flexibility Score: inf
ROOT
ATOM      1  C   UNL     1       8.392  -0.665  -2.105  1.00  0.00     0.127 C 
ENDROOT
BRANCH   1   2
ATOM      2  C   UNL     1       8.393  -1.917  -2.882  1.00  0.00     0.303 C 
ATOM      3  O   UNL     1       7.292  -2.414  -3.243  1.00  0.00    -0.252 OA
BRANCH   2   4
ATOM      4  O   UNL     1       9.579  -2.576  -3.236  1.00  0.00    -0.481 OA
ATOM      5  H   UNL     1       9.893  -2.525  -4.195  1.00  0.00     0.296 HD
ENDBRANCH   2   4
ENDBRANCH   1   2
BRANCH   1   6
ATOM      6  C   UNL     1       7.041   0.027  -2.133  1.00  0.00     0.047 C 
BRANCH   6   7
ATOM      7  C   UNL     1       6.474   0.144  -0.764  1.00  0.00    -0.047 A 
ATOM      8  C   UNL     1       6.614  -0.889   0.151  1.00  0.00     0.004 A 
ATOM      9  C   UNL     1       5.781   1.261  -0.334  1.00  0.00     0.004 A 
ATOM     10  C   UNL     1       6.092  -0.815   1.422  1.00  0.00     0.000 A 
ATOM     11  C   UNL     1       5.259   1.334   0.939  1.00  0.00     0.000 A 
ATOM     12  C   UNL     1       5.400   0.304   1.841  1.00  0.00     0.000 A 
ENDBRANCH   6   7
ENDBRANCH   1   6
TORSDOF 4
ENDMDL
MODEL 3
REMARK VINA RESULT:      -6.8      3.395      5.079
REMARK SMILES O=C(O)CCc1ccccc1
REMARK SMILES IDX 4 1 2 2 1 3 3 4 5 6 6 7 7 8 11 9 8 10 10 11 9 12
REMARK H PARENT 3 5
REMARK Flexibility Score: inf
ROOT
ATOM      1  C   UNL     1       4.986   1.739   0.711  1.00  0.00     0.127 C 
ENDROOT
BRANCH   1   2
ATOM      2  C   UNL     1       4.457   1.095   1.927  1.00  0.00     0.303 C 
ATOM      3  O   UNL     1       5.135   0.190   2.485  1.00  0.00    -0.252 OA
BRANCH   2   4
ATOM      4  O   UNL     1       3.223   1.455   2.487  1.00  0.00    -0.481 OA
ATOM      5  H   UNL     1       3.109   2.395   2.842  1.00  0.00     0.296 HD
ENDBRANCH   2   4
ENDBRANCH   1   2
BRANCH   1   6
ATOM      6  C   UNL     1       6.499   1.866   0.741  1.00  0.00     0.047 C 
BRANCH   6   7
ATOM      7  C   UNL     1       7.123   1.057  -0.338  1.00  0.00    -0.047 A 
ATOM      8  C   UNL     1       8.464   1.217  -0.657  1.00  0.00     0.004 A 
ATOM      9  C   UNL     1       6.418   0.125  -1.078  1.00  0.00     0.004 A 
ATOM     10  C   UNL     1       9.068   0.490  -1.657  1.00  0.00     0.000 A 
ATOM     11  C   UNL     1       7.025  -0.601  -2.080  1.00  0.00     0.000 A 
ATOM     12  C   UNL     1       8.355  -0.436  -2.391  1.00  0.00     0.000 A 
ENDBRANCH   6   7
ENDBRANCH   1   6
TORSDOF 4
ENDMDL
MODEL 4
REMARK VINA RESULT:      -6.6      1.915      2.295
REMARK SMILES O=C(O)CCc1ccccc1
REMARK SMILES IDX 4 1 2 2 1 3 3 4 5 6 6 7 7 8 11 9 8 10 10 11 9 12
REMARK H PARENT 3 5
REMARK Flexibility Score: inf
ROOT
ATOM      1  C   UNL     1       8.215   0.410  -2.166  1.00  0.00     0.127 C 
ENDROOT
BRANCH   1   2
ATOM      2  C   UNL     1       9.376   0.457  -1.260  1.00  0.00     0.303 C 
ATOM      3  O   UNL     1       9.450  -0.376  -0.315  1.00  0.00    -0.252 OA
BRANCH   2   4
ATOM      4  O   UNL     1      10.405   1.397  -1.411  1.00  0.00    -0.481 OA
ATOM      5  H   UNL     1      11.231   1.307  -0.835  1.00  0.00     0.296 HD
ENDBRANCH   2   4
ENDBRANCH   1   2
BRANCH   1   6
ATOM      6  C   UNL     1       7.114  -0.495  -1.642  1.00  0.00     0.047 C 
BRANCH   6   7
ATOM      7  C   UNL     1       6.355   0.167  -0.549  1.00  0.00    -0.047 A 
ATOM      8  C   UNL     1       5.785   1.418  -0.741  1.00  0.00     0.004 A 
ATOM      9  C   UNL     1       6.184  -0.406   0.698  1.00  0.00     0.004 A 
ATOM     10  C   UNL     1       5.086   2.062   0.254  1.00  0.00     0.000 A 
ATOM     11  C   UNL     1       5.482   0.240   1.693  1.00  0.00     0.000 A 
ATOM     12  C   UNL     1       4.921   1.482   1.496  1.00  0.00     0.000 A 
ENDBRANCH   6   7
ENDBRANCH   1   6
TORSDOF 4
ENDMDL
MODEL 5
REMARK VINA RESULT:      -6.6      1.881      2.913
REMARK SMILES O=C(O)CCc1ccccc1
REMARK SMILES IDX 4 1 2 2 1 3 3 4 5 6 6 7 7 8 11 9 8 10 10 11 9 12
REMARK H PARENT 3 5
REMARK Flexibility Score: inf
ROOT
ATOM      1  C   UNL     1       8.149  -1.681   1.137  1.00  0.00     0.127 C 
ENDROOT
BRANCH   1   2
ATOM      2  C   UNL     1       8.506  -2.853   0.318  1.00  0.00     0.303 C 
ATOM      3  O   UNL     1       9.185  -3.779   0.838  1.00  0.00    -0.252 OA
BRANCH   2   4
ATOM      4  O   UNL     1       8.114  -2.976  -1.023  1.00  0.00    -0.481 OA
ATOM      5  H   UNL     1       7.316  -3.556  -1.242  1.00  0.00     0.296 HD
ENDBRANCH   2   4
ENDBRANCH   1   2
BRANCH   1   6
ATOM      6  C   UNL     1       6.650  -1.567   1.354  1.00  0.00     0.047 C 
BRANCH   6   7
ATOM      7  C   UNL     1       6.132  -0.278   0.827  1.00  0.00    -0.047 A 
ATOM      8  C   UNL     1       6.382   0.103  -0.484  1.00  0.00     0.004 A 
ATOM      9  C   UNL     1       5.395   0.603   1.597  1.00  0.00     0.004 A 
ATOM     10  C   UNL     1       5.926   1.295  -0.998  1.00  0.00     0.000 A 
ATOM     11  C   UNL     1       4.938   1.797   1.081  1.00  0.00     0.000 A 
ATOM     12  C   UNL     1       5.192   2.168  -0.220  1.00  0.00     0.000 A 
ENDBRANCH   6   7
ENDBRANCH   1   6
TORSDOF 4
ENDMDL
