@<TRIPOS>MOLECULE
/home/cewinharhar/GITHUB/reincatalyze/data/processed/docking_pred/2023-Apr-25-2248_maxeplen10_maxtrainstep1000_exh16_gamma099_lrac3e-4_lrcr1e-3/f6b0a6d65051a5b20d9eb350202399160ef0f891_ligand_2.pdbqt
 12 12 0 0 0
SMALL
GASTEIGER

@<TRIPOS>ATOM
      1  C          4.9880    1.7860    0.7360 C.3     1  UNL1        0.1270
      2  C          4.4570    1.1100    1.9340 C.2     1  UNL1        0.3030
      3  O          5.1390    0.1970    2.4740 O.2     1  UNL1       -0.2520
      4  O          3.2170    1.4480    2.4950 O.3     1  UNL1       -0.4810
      5  H          3.0720    2.3970    2.8100 H       1  UNL1        0.2960
      6  C          6.5020    1.8960    0.7640 C.3     1  UNL1        0.0470
      7  C          7.1150    1.0930   -0.3260 C.2     1  UNL1       -0.0470
      8  C          8.4600    1.2320   -0.6370 C.2     1  UNL1        0.0040
      9  C          6.3950    0.1890   -1.0850 C.2     1  UNL1        0.0040
     10  C          9.0540    0.5110   -1.6470 C.2     1  UNL1        0.0000
     11  C          6.9910   -0.5330   -2.0970 C.2     1  UNL1        0.0000
     12  C          8.3260   -0.3890   -2.4000 C.2     1  UNL1        0.0000
@<TRIPOS>BOND
     1    12    11    2
     2    12    10    1
     3    11     9    1
     4    10     8    2
     5     9     7    2
     6     8     7    1
     7     7     6    1
     8     1     6    1
     9     1     2    1
    10     2     3    2
    11     2     4    1
    12     4     5    1
