@<TRIPOS>MOLECULE
/home/cewinharhar/GITHUB/reincatalyze/data/processed/docking_pred/2023-Apr-25-2248_maxeplen10_maxtrainstep1000_exh16_gamma099_lrac3e-4_lrcr1e-3/f6b0a6d65051a5b20d9eb350202399160ef0f891_ligand_2.pdbqt
 12 12 0 0 0
SMALL
GASTEIGER

@<TRIPOS>ATOM
      1  C          8.4000   -0.6580   -2.1210 C.3     1  UNL1        0.1270
      2  C          8.4350   -1.9170   -2.8860 C.2     1  UNL1        0.3030
      3  O          9.5390   -2.5050   -3.0480 O.2     1  UNL1       -0.2520
      4  O          7.2810   -2.4880   -3.4410 O.3     1  UNL1       -0.4810
      5  H          6.3790   -2.1710   -3.1110 H       1  UNL1        0.2960
      6  C          7.0230   -0.0190   -2.1310 C.3     1  UNL1        0.0470
      7  C          6.4750    0.0890   -0.7540 C.2     1  UNL1       -0.0470
      8  C          6.6020   -0.9630    0.1420 C.2     1  UNL1        0.0040
      9  C          5.8130    1.2140   -0.2980 C.2     1  UNL1        0.0040
     10  C          6.0960   -0.8980    1.4210 C.2     1  UNL1        0.0000
     11  C          5.3070    1.2770    0.9830 C.2     1  UNL1        0.0000
     12  C          5.4360    0.2290    1.8660 C.2     1  UNL1        0.0000
@<TRIPOS>BOND
     1     4     5    1
     2     4     2    1
     3     3     2    2
     4     2     1    1
     5     6     1    1
     6     6     7    1
     7     7     9    2
     8     7     8    1
     9     9    11    1
    10     8    10    2
    11    11    12    2
    12    10    12    1
