@<TRIPOS>MOLECULE
/home/cewinharhar/GITHUB/reincatalyze/data/processed/docking_pred/2023-Apr-25-2248_maxeplen10_maxtrainstep1000_exh16_gamma099_lrac3e-4_lrcr1e-3/f6b0a6d65051a5b20d9eb350202399160ef0f891_ligand_2.pdbqt
 12 12 0 0 0
SMALL
GASTEIGER

@<TRIPOS>ATOM
      1  C          8.5070    0.6380   -1.7180 C.3     1  UNL1        0.1270
      2  C          9.6410    0.2710   -0.8510 C.2     1  UNL1        0.3030
      3  O          9.4470   -0.5300    0.1030 O.2     1  UNL1       -0.2520
      4  O         10.9310    0.7830   -1.0510 O.3     1  UNL1       -0.4810
      5  H         11.4660    0.4500   -1.8420 H       1  UNL1        0.2960
      6  C          7.2990   -0.2540   -1.4910 C.3     1  UNL1        0.0470
      7  C          6.4100    0.3120   -0.4430 C.2     1  UNL1       -0.0470
      8  C          5.7990    1.5440   -0.6230 C.2     1  UNL1        0.0040
      9  C          6.1520   -0.3380    0.7500 C.2     1  UNL1        0.0040
     10  C          4.9780    2.0990    0.3320 C.2     1  UNL1        0.0000
     11  C          5.3300    0.2190    1.7060 C.2     1  UNL1        0.0000
     12  C          4.7290    1.4430    1.5210 C.2     1  UNL1        0.0000
@<TRIPOS>BOND
     1     5     4    1
     2     1     6    1
     3     1     2    1
     4     6     7    1
     5     4     2    1
     6     2     3    2
     7     8     7    2
     8     8    10    1
     9     7     9    1
    10    10    12    2
    11     9    11    2
    12    12    11    1
