MODEL 1
REMARK VINA RESULT:      -7.3      0.000      0.000
REMARK SMILES O=C(O)CCc1ccccc1
REMARK SMILES IDX 4 1 2 2 1 3 3 4 5 6 6 7 7 8 11 9 8 10 10 11 9 12
REMARK H PARENT 3 5
REMARK Flexibility Score: inf
ROOT
ATOM      1  C   UNL     1       8.400  -0.658  -2.121  1.00  0.00     0.127 C 
ENDROOT
BRANCH   1   2
ATOM      2  C   UNL     1       8.435  -1.917  -2.886  1.00  0.00     0.303 C 
ATOM      3  O   UNL     1       9.539  -2.505  -3.048  1.00  0.00    -0.252 OA
BRANCH   2   4
ATOM      4  O   UNL     1       7.281  -2.488  -3.441  1.00  0.00    -0.481 OA
ATOM      5  H   UNL     1       6.379  -2.171  -3.111  1.00  0.00     0.296 HD
ENDBRANCH   2   4
ENDBRANCH   1   2
BRANCH   1   6
ATOM      6  C   UNL     1       7.023  -0.019  -2.131  1.00  0.00     0.047 C 
BRANCH   6   7
ATOM      7  C   UNL     1       6.475   0.089  -0.754  1.00  0.00    -0.047 A 
ATOM      8  C   UNL     1       6.602  -0.963   0.142  1.00  0.00     0.004 A 
ATOM      9  C   UNL     1       5.813   1.214  -0.298  1.00  0.00     0.004 A 
ATOM     10  C   UNL     1       6.096  -0.898   1.421  1.00  0.00     0.000 A 
ATOM     11  C   UNL     1       5.307   1.277   0.983  1.00  0.00     0.000 A 
ATOM     12  C   UNL     1       5.436   0.229   1.866  1.00  0.00     0.000 A 
ENDBRANCH   6   7
ENDBRANCH   1   6
TORSDOF 4
ENDMDL
MODEL 2
REMARK VINA RESULT:      -7.3      0.059      1.422
REMARK SMILES O=C(O)CCc1ccccc1
REMARK SMILES IDX 4 1 2 2 1 3 3 4 5 6 6 7 7 8 11 9 8 10 10 11 9 12
REMARK H PARENT 3 5
REMARK Flexibility Score: inf
ROOT
ATOM      1  C   UNL     1       8.395  -0.673  -2.103  1.00  0.00     0.127 C 
ENDROOT
BRANCH   1   2
ATOM      2  C   UNL     1       8.421  -1.921  -2.886  1.00  0.00     0.303 C 
ATOM      3  O   UNL     1       9.521  -2.515  -3.055  1.00  0.00    -0.252 OA
BRANCH   2   4
ATOM      4  O   UNL     1       7.263  -2.474  -3.451  1.00  0.00    -0.481 OA
ATOM      5  H   UNL     1       7.242  -2.639  -4.448  1.00  0.00     0.296 HD
ENDBRANCH   2   4
ENDBRANCH   1   2
BRANCH   1   6
ATOM      6  C   UNL     1       7.018  -0.035  -2.086  1.00  0.00     0.047 C 
BRANCH   6   7
ATOM      7  C   UNL     1       6.472   0.018  -0.704  1.00  0.00    -0.047 A 
ATOM      8  C   UNL     1       5.814   1.150  -0.246  1.00  0.00     0.004 A 
ATOM      9  C   UNL     1       6.594  -1.031   0.189  1.00  0.00     0.004 A 
ATOM     10  C   UNL     1       5.307   1.234   1.030  1.00  0.00     0.000 A 
ATOM     11  C   UNL     1       6.085  -0.945   1.467  1.00  0.00     0.000 A 
ATOM     12  C   UNL     1       5.435   0.183   1.915  1.00  0.00     0.000 A 
ENDBRANCH   6   7
ENDBRANCH   1   6
TORSDOF 4
ENDMDL
MODEL 3
REMARK VINA RESULT:      -6.8      3.403      5.082
REMARK SMILES O=C(O)CCc1ccccc1
REMARK SMILES IDX 4 1 2 2 1 3 3 4 5 6 6 7 7 8 11 9 8 10 10 11 9 12
REMARK H PARENT 3 5
REMARK Flexibility Score: inf
ROOT
ATOM      1  C   UNL     1       5.000   1.799   0.731  1.00  0.00     0.127 C 
ENDROOT
BRANCH   1   2
ATOM      2  C   UNL     1       4.467   1.120   1.926  1.00  0.00     0.303 C 
ATOM      3  O   UNL     1       5.151   0.211   2.469  1.00  0.00    -0.252 OA
BRANCH   2   4
ATOM      4  O   UNL     1       3.223   1.452   2.482  1.00  0.00    -0.481 OA
ATOM      5  H   UNL     1       2.992   2.429   2.600  1.00  0.00     0.296 HD
ENDBRANCH   2   4
ENDBRANCH   1   2
BRANCH   1   6
ATOM      6  C   UNL     1       6.512   1.927   0.770  1.00  0.00     0.047 C 
BRANCH   6   7
ATOM      7  C   UNL     1       7.142   1.145  -0.325  1.00  0.00    -0.047 A 
ATOM      8  C   UNL     1       6.389   0.265  -1.089  1.00  0.00     0.004 A 
ATOM      9  C   UNL     1       8.486   1.238  -0.634  1.00  0.00     0.004 A 
ATOM     10  C   UNL     1       6.944  -0.481  -2.103  1.00  0.00     0.000 A 
ATOM     11  C   UNL     1       9.041   0.490  -1.651  1.00  0.00     0.000 A 
ATOM     12  C   UNL     1       8.287  -0.382  -2.403  1.00  0.00     0.000 A 
ENDBRANCH   6   7
ENDBRANCH   1   6
TORSDOF 4
ENDMDL
MODEL 4
REMARK VINA RESULT:      -6.8      3.403      5.098
REMARK SMILES O=C(O)CCc1ccccc1
REMARK SMILES IDX 4 1 2 2 1 3 3 4 5 6 6 7 7 8 11 9 8 10 10 11 9 12
REMARK H PARENT 3 5
REMARK Flexibility Score: inf
ROOT
ATOM      1  C   UNL     1       4.988   1.786   0.736  1.00  0.00     0.127 C 
ENDROOT
BRANCH   1   2
ATOM      2  C   UNL     1       4.457   1.110   1.934  1.00  0.00     0.303 C 
ATOM      3  O   UNL     1       5.139   0.197   2.474  1.00  0.00    -0.252 OA
BRANCH   2   4
ATOM      4  O   UNL     1       3.217   1.448   2.495  1.00  0.00    -0.481 OA
ATOM      5  H   UNL     1       3.072   2.397   2.810  1.00  0.00     0.296 HD
ENDBRANCH   2   4
ENDBRANCH   1   2
BRANCH   1   6
ATOM      6  C   UNL     1       6.502   1.896   0.764  1.00  0.00     0.047 C 
BRANCH   6   7
ATOM      7  C   UNL     1       7.115   1.093  -0.326  1.00  0.00    -0.047 A 
ATOM      8  C   UNL     1       8.460   1.232  -0.637  1.00  0.00     0.004 A 
ATOM      9  C   UNL     1       6.395   0.189  -1.085  1.00  0.00     0.004 A 
ATOM     10  C   UNL     1       9.054   0.511  -1.647  1.00  0.00     0.000 A 
ATOM     11  C   UNL     1       6.991  -0.533  -2.097  1.00  0.00     0.000 A 
ATOM     12  C   UNL     1       8.326  -0.389  -2.400  1.00  0.00     0.000 A 
ENDBRANCH   6   7
ENDBRANCH   1   6
TORSDOF 4
ENDMDL
MODEL 5
REMARK VINA RESULT:      -6.5      2.045      2.743
REMARK SMILES O=C(O)CCc1ccccc1
REMARK SMILES IDX 4 1 2 2 1 3 3 4 5 6 6 7 7 8 11 9 8 10 10 11 9 12
REMARK H PARENT 3 5
REMARK Flexibility Score: inf
ROOT
ATOM      1  C   UNL     1       8.507   0.638  -1.718  1.00  0.00     0.127 C 
ENDROOT
BRANCH   1   2
ATOM      2  C   UNL     1       9.641   0.271  -0.851  1.00  0.00     0.303 C 
ATOM      3  O   UNL     1       9.447  -0.530   0.103  1.00  0.00    -0.252 OA
BRANCH   2   4
ATOM      4  O   UNL     1      10.931   0.783  -1.051  1.00  0.00    -0.481 OA
ATOM      5  H   UNL     1      11.466   0.450  -1.842  1.00  0.00     0.296 HD
ENDBRANCH   2   4
ENDBRANCH   1   2
BRANCH   1   6
ATOM      6  C   UNL     1       7.299  -0.254  -1.491  1.00  0.00     0.047 C 
BRANCH   6   7
ATOM      7  C   UNL     1       6.410   0.312  -0.443  1.00  0.00    -0.047 A 
ATOM      8  C   UNL     1       5.799   1.544  -0.623  1.00  0.00     0.004 A 
ATOM      9  C   UNL     1       6.152  -0.338   0.750  1.00  0.00     0.004 A 
ATOM     10  C   UNL     1       4.978   2.099   0.332  1.00  0.00     0.000 A 
ATOM     11  C   UNL     1       5.330   0.219   1.706  1.00  0.00     0.000 A 
ATOM     12  C   UNL     1       4.729   1.443   1.521  1.00  0.00     0.000 A 
ENDBRANCH   6   7
ENDBRANCH   1   6
TORSDOF 4
ENDMDL
