@<TRIPOS>MOLECULE
/home/cewinharhar/GITHUB/reincatalyze/data/processed/docking_pred/2023-Apr-25-2248_maxeplen10_maxtrainstep1000_exh16_gamma099_lrac3e-4_lrcr1e-3/f6b0a6d65051a5b20d9eb350202399160ef0f891_ligand_2.pdbqt
 12 12 0 0 0
SMALL
GASTEIGER

@<TRIPOS>ATOM
      1  C          5.0000    1.7990    0.7310 C.3     1  UNL1        0.1270
      2  C          4.4670    1.1200    1.9260 C.2     1  UNL1        0.3030
      3  O          5.1510    0.2110    2.4690 O.2     1  UNL1       -0.2520
      4  O          3.2230    1.4520    2.4820 O.3     1  UNL1       -0.4810
      5  H          2.9920    2.4290    2.6000 H       1  UNL1        0.2960
      6  C          6.5120    1.9270    0.7700 C.3     1  UNL1        0.0470
      7  C          7.1420    1.1450   -0.3250 C.2     1  UNL1       -0.0470
      8  C          6.3890    0.2650   -1.0890 C.2     1  UNL1        0.0040
      9  C          8.4860    1.2380   -0.6340 C.2     1  UNL1        0.0040
     10  C          6.9440   -0.4810   -2.1030 C.2     1  UNL1        0.0000
     11  C          9.0410    0.4900   -1.6510 C.2     1  UNL1        0.0000
     12  C          8.2870   -0.3820   -2.4030 C.2     1  UNL1        0.0000
@<TRIPOS>BOND
     1    12    10    2
     2    12    11    1
     3    10     8    1
     4    11     9    2
     5     8     7    2
     6     9     7    1
     7     7     6    1
     8     1     6    1
     9     1     2    1
    10     2     3    2
    11     2     4    1
    12     4     5    1
