MODEL 1
REMARK VINA RESULT:      -7.2      0.000      0.000
REMARK SMILES O=C(O)CCc1ccccc1
REMARK SMILES IDX 4 1 2 2 1 3 3 4 5 6 6 7 7 8 11 9 8 10 10 11 9 12
REMARK H PARENT 3 5
REMARK Flexibility Score: inf
ROOT
ATOM      1  C   UNL     1       8.409  -0.650  -2.129  1.00  0.00     0.127 C 
ENDROOT
BRANCH   1   2
ATOM      2  C   UNL     1       8.401  -1.910  -2.894  1.00  0.00     0.303 C 
ATOM      3  O   UNL     1       7.296  -2.413  -3.235  1.00  0.00    -0.252 OA
BRANCH   2   4
ATOM      4  O   UNL     1       9.583  -2.571  -3.258  1.00  0.00    -0.481 OA
ATOM      5  H   UNL     1       9.657  -2.949  -4.193  1.00  0.00     0.296 HD
ENDBRANCH   2   4
ENDBRANCH   1   2
BRANCH   1   6
ATOM      6  C   UNL     1       7.030  -0.019  -2.049  1.00  0.00     0.047 C 
BRANCH   6   7
ATOM      7  C   UNL     1       6.500  -0.071  -0.662  1.00  0.00    -0.047 A 
ATOM      8  C   UNL     1       6.712  -1.187   0.135  1.00  0.00     0.004 A 
ATOM      9  C   UNL     1       5.772   0.961  -0.100  1.00  0.00     0.004 A 
ATOM     10  C   UNL     1       6.226  -1.270   1.420  1.00  0.00     0.000 A 
ATOM     11  C   UNL     1       5.286   0.877   1.187  1.00  0.00     0.000 A 
ATOM     12  C   UNL     1       5.499  -0.234   1.972  1.00  0.00     0.000 A 
ENDBRANCH   6   7
ENDBRANCH   1   6
TORSDOF 4
ENDMDL
MODEL 2
REMARK VINA RESULT:      -7.2      0.043      1.421
REMARK SMILES O=C(O)CCc1ccccc1
REMARK SMILES IDX 4 1 2 2 1 3 3 4 5 6 6 7 7 8 11 9 8 10 10 11 9 12
REMARK H PARENT 3 5
REMARK Flexibility Score: inf
ROOT
ATOM      1  C   UNL     1       8.430  -0.685  -2.112  1.00  0.00     0.127 C 
ENDROOT
BRANCH   1   2
ATOM      2  C   UNL     1       8.424  -1.934  -2.895  1.00  0.00     0.303 C 
ATOM      3  O   UNL     1       7.319  -2.432  -3.243  1.00  0.00    -0.252 OA
BRANCH   2   4
ATOM      4  O   UNL     1       9.606  -2.589  -3.268  1.00  0.00    -0.481 OA
ATOM      5  H   UNL     1      10.468  -2.331  -2.806  1.00  0.00     0.296 HD
ENDBRANCH   2   4
ENDBRANCH   1   2
BRANCH   1   6
ATOM      6  C   UNL     1       7.053  -0.053  -2.029  1.00  0.00     0.047 C 
BRANCH   6   7
ATOM      7  C   UNL     1       6.516  -0.124  -0.645  1.00  0.00    -0.047 A 
ATOM      8  C   UNL     1       5.781   0.927  -0.115  1.00  0.00     0.004 A 
ATOM      9  C   UNL     1       6.722  -1.214   0.182  1.00  0.00     0.004 A 
ATOM     10  C   UNL     1       5.280   0.895   1.166  1.00  0.00     0.000 A 
ATOM     11  C   UNL     1       6.219  -1.243   1.465  1.00  0.00     0.000 A 
ATOM     12  C   UNL     1       5.492  -0.196   1.984  1.00  0.00     0.000 A 
ENDBRANCH   6   7
ENDBRANCH   1   6
TORSDOF 4
ENDMDL
MODEL 3
REMARK VINA RESULT:      -6.7      3.174      5.025
REMARK SMILES O=C(O)CCc1ccccc1
REMARK SMILES IDX 4 1 2 2 1 3 3 4 5 6 6 7 7 8 11 9 8 10 10 11 9 12
REMARK H PARENT 3 5
REMARK Flexibility Score: inf
ROOT
ATOM      1  C   UNL     1       5.164   1.139   0.649  1.00  0.00     0.127 C 
ENDROOT
BRANCH   1   2
ATOM      2  C   UNL     1       4.801   0.581   1.964  1.00  0.00     0.303 C 
ATOM      3  O   UNL     1       5.564  -0.267   2.501  1.00  0.00    -0.252 OA
BRANCH   2   4
ATOM      4  O   UNL     1       3.633   0.961   2.641  1.00  0.00    -0.481 OA
ATOM      5  H   UNL     1       3.644   1.815   3.181  1.00  0.00     0.296 HD
ENDBRANCH   2   4
ENDBRANCH   1   2
BRANCH   1   6
ATOM      6  C   UNL     1       6.642   1.472   0.556  1.00  0.00     0.047 C 
BRANCH   6   7
ATOM      7  C   UNL     1       7.298   0.686  -0.522  1.00  0.00    -0.047 A 
ATOM      8  C   UNL     1       6.625  -0.353  -1.149  1.00  0.00     0.004 A 
ATOM      9  C   UNL     1       8.590   0.932  -0.947  1.00  0.00     0.004 A 
ATOM     10  C   UNL     1       7.208  -1.106  -2.143  1.00  0.00     0.000 A 
ATOM     11  C   UNL     1       9.173   0.178  -1.943  1.00  0.00     0.000 A 
ATOM     12  C   UNL     1       8.500  -0.853  -2.559  1.00  0.00     0.000 A 
ENDBRANCH   6   7
ENDBRANCH   1   6
TORSDOF 4
ENDMDL
MODEL 4
REMARK VINA RESULT:      -6.6      3.172      5.054
REMARK SMILES O=C(O)CCc1ccccc1
REMARK SMILES IDX 4 1 2 2 1 3 3 4 5 6 6 7 7 8 11 9 8 10 10 11 9 12
REMARK H PARENT 3 5
REMARK Flexibility Score: inf
ROOT
ATOM      1  C   UNL     1       5.140   1.240   0.671  1.00  0.00     0.127 C 
ENDROOT
BRANCH   1   2
ATOM      2  C   UNL     1       4.789   0.618   1.960  1.00  0.00     0.303 C 
ATOM      3  O   UNL     1       5.571  -0.237   2.460  1.00  0.00    -0.252 OA
BRANCH   2   4
ATOM      4  O   UNL     1       3.615   0.945   2.654  1.00  0.00    -0.481 OA
ATOM      5  H   UNL     1       3.670   1.618   3.407  1.00  0.00     0.296 HD
ENDBRANCH   2   4
ENDBRANCH   1   2
BRANCH   1   6
ATOM      6  C   UNL     1       6.626   1.527   0.558  1.00  0.00     0.047 C 
BRANCH   6   7
ATOM      7  C   UNL     1       7.250   0.694  -0.503  1.00  0.00    -0.047 A 
ATOM      8  C   UNL     1       8.542   0.953  -0.938  1.00  0.00     0.004 A 
ATOM      9  C   UNL     1       6.592  -0.359  -1.111  1.00  0.00     0.004 A 
ATOM     10  C   UNL     1       9.144   0.207  -1.925  1.00  0.00     0.000 A 
ATOM     11  C   UNL     1       7.197  -1.106  -2.100  1.00  0.00     0.000 A 
ATOM     12  C   UNL     1       8.478  -0.842  -2.527  1.00  0.00     0.000 A 
ENDBRANCH   6   7
ENDBRANCH   1   6
TORSDOF 4
ENDMDL
MODEL 5
REMARK VINA RESULT:      -6.6      3.216      4.936
REMARK SMILES O=C(O)CCc1ccccc1
REMARK SMILES IDX 4 1 2 2 1 3 3 4 5 6 6 7 7 8 11 9 8 10 10 11 9 12
REMARK H PARENT 3 5
REMARK Flexibility Score: inf
ROOT
ATOM      1  C   UNL     1       5.896  -0.697   1.744  1.00  0.00     0.127 C 
ENDROOT
BRANCH   1   2
ATOM      2  C   UNL     1       5.242   0.606   1.956  1.00  0.00     0.303 C 
ATOM      3  O   UNL     1       4.086   0.637   2.458  1.00  0.00    -0.252 OA
BRANCH   2   4
ATOM      4  O   UNL     1       5.863   1.818   1.620  1.00  0.00    -0.481 OA
ATOM      5  H   UNL     1       6.018   2.501   2.349  1.00  0.00     0.296 HD
ENDBRANCH   2   4
ENDBRANCH   1   2
BRANCH   1   6
ATOM      6  C   UNL     1       7.383  -0.556   1.470  1.00  0.00     0.047 C 
BRANCH   6   7
ATOM      7  C   UNL     1       7.648  -0.455   0.011  1.00  0.00    -0.047 A 
ATOM      8  C   UNL     1       8.606   0.424  -0.475  1.00  0.00     0.004 A 
ATOM      9  C   UNL     1       6.966  -1.206  -0.928  1.00  0.00     0.004 A 
ATOM     10  C   UNL     1       8.867   0.549  -1.820  1.00  0.00     0.000 A 
ATOM     11  C   UNL     1       7.229  -1.081  -2.275  1.00  0.00     0.000 A 
ATOM     12  C   UNL     1       8.180  -0.205  -2.749  1.00  0.00     0.000 A 
ENDBRANCH   6   7
ENDBRANCH   1   6
TORSDOF 4
ENDMDL
