@<TRIPOS>MOLECULE
/home/cewinharhar/GITHUB/reincatalyze/data/processed/docking_pred/2023-Apr-25-2248_maxeplen10_maxtrainstep1000_exh16_gamma099_lrac3e-4_lrcr1e-3/f6e3ea477952fa895fac814ddb6280364cb1460b_ligand_2.pdbqt
 12 12 0 0 0
SMALL
GASTEIGER

@<TRIPOS>ATOM
      1  C          5.1640    1.1390    0.6490 C.3     1  UNL1        0.1270
      2  C          4.8010    0.5810    1.9640 C.2     1  UNL1        0.3030
      3  O          5.5640   -0.2670    2.5010 O.2     1  UNL1       -0.2520
      4  O          3.6330    0.9610    2.6410 O.3     1  UNL1       -0.4810
      5  H          3.6440    1.8150    3.1810 H       1  UNL1        0.2960
      6  C          6.6420    1.4720    0.5560 C.3     1  UNL1        0.0470
      7  C          7.2980    0.6860   -0.5220 C.2     1  UNL1       -0.0470
      8  C          6.6250   -0.3530   -1.1490 C.2     1  UNL1        0.0040
      9  C          8.5900    0.9320   -0.9470 C.2     1  UNL1        0.0040
     10  C          7.2080   -1.1060   -2.1430 C.2     1  UNL1        0.0000
     11  C          9.1730    0.1780   -1.9430 C.2     1  UNL1        0.0000
     12  C          8.5000   -0.8530   -2.5590 C.2     1  UNL1        0.0000
@<TRIPOS>BOND
     1    12    10    2
     2    12    11    1
     3    10     8    1
     4    11     9    2
     5     8     7    2
     6     9     7    1
     7     7     6    1
     8     6     1    1
     9     1     2    1
    10     2     3    2
    11     2     4    1
    12     4     5    1
