@<TRIPOS>MOLECULE
/home/cewinharhar/GITHUB/reincatalyze/data/processed/docking_pred/2023-Apr-25-2248_maxeplen10_maxtrainstep1000_exh16_gamma099_lrac3e-4_lrcr1e-3/f6e3ea477952fa895fac814ddb6280364cb1460b_ligand_2.pdbqt
 12 12 0 0 0
SMALL
GASTEIGER

@<TRIPOS>ATOM
      1  C          5.1400    1.2400    0.6710 C.3     1  UNL1        0.1270
      2  C          4.7890    0.6180    1.9600 C.2     1  UNL1        0.3030
      3  O          5.5710   -0.2370    2.4600 O.2     1  UNL1       -0.2520
      4  O          3.6150    0.9450    2.6540 O.3     1  UNL1       -0.4810
      5  H          3.6700    1.6180    3.4070 H       1  UNL1        0.2960
      6  C          6.6260    1.5270    0.5580 C.3     1  UNL1        0.0470
      7  C          7.2500    0.6940   -0.5030 C.2     1  UNL1       -0.0470
      8  C          8.5420    0.9530   -0.9380 C.2     1  UNL1        0.0040
      9  C          6.5920   -0.3590   -1.1110 C.2     1  UNL1        0.0040
     10  C          9.1440    0.2070   -1.9250 C.2     1  UNL1        0.0000
     11  C          7.1970   -1.1060   -2.1000 C.2     1  UNL1        0.0000
     12  C          8.4780   -0.8420   -2.5270 C.2     1  UNL1        0.0000
@<TRIPOS>BOND
     1    12    11    2
     2    12    10    1
     3    11     9    1
     4    10     8    2
     5     9     7    2
     6     8     7    1
     7     7     6    1
     8     6     1    1
     9     1     2    1
    10     2     3    2
    11     2     4    1
    12     4     5    1
