@<TRIPOS>MOLECULE
/home/cewinharhar/GITHUB/reincatalyze/data/processed/docking_pred/2023-Apr-25-2248_maxeplen10_maxtrainstep1000_exh16_gamma099_lrac3e-4_lrcr1e-3/f6e3ea477952fa895fac814ddb6280364cb1460b_ligand_2.pdbqt
 12 12 0 0 0
SMALL
GASTEIGER

@<TRIPOS>ATOM
      1  C          5.8960   -0.6970    1.7440 C.3     1  UNL1        0.1270
      2  C          5.2420    0.6060    1.9560 C.2     1  UNL1        0.3030
      3  O          4.0860    0.6370    2.4580 O.2     1  UNL1       -0.2520
      4  O          5.8630    1.8180    1.6200 O.3     1  UNL1       -0.4810
      5  H          6.0180    2.5010    2.3490 H       1  UNL1        0.2960
      6  C          7.3830   -0.5560    1.4700 C.3     1  UNL1        0.0470
      7  C          7.6480   -0.4550    0.0110 C.2     1  UNL1       -0.0470
      8  C          8.6060    0.4240   -0.4750 C.2     1  UNL1        0.0040
      9  C          6.9660   -1.2060   -0.9280 C.2     1  UNL1        0.0040
     10  C          8.8670    0.5490   -1.8200 C.2     1  UNL1        0.0000
     11  C          7.2290   -1.0810   -2.2750 C.2     1  UNL1        0.0000
     12  C          8.1800   -0.2050   -2.7490 C.2     1  UNL1        0.0000
@<TRIPOS>BOND
     1    12    11    2
     2    12    10    1
     3    11     9    1
     4    10     8    2
     5     9     7    2
     6     8     7    1
     7     7     6    1
     8     6     1    1
     9     4     2    1
    10     4     5    1
    11     1     2    1
    12     2     3    2
