@<TRIPOS>MOLECULE
/home/cewinharhar/GITHUB/reincatalyze/data/processed/docking_pred/2023-Apr-25-2248_maxeplen10_maxtrainstep1000_exh16_gamma099_lrac3e-4_lrcr1e-3/f6e3ea477952fa895fac814ddb6280364cb1460b_ligand_2.pdbqt
 12 12 0 0 0
SMALL
GASTEIGER

@<TRIPOS>ATOM
      1  C          8.4300   -0.6850   -2.1120 C.3     1  UNL1        0.1270
      2  C          8.4240   -1.9340   -2.8950 C.2     1  UNL1        0.3030
      3  O          7.3190   -2.4320   -3.2430 O.2     1  UNL1       -0.2520
      4  O          9.6060   -2.5890   -3.2680 O.3     1  UNL1       -0.4810
      5  H         10.4680   -2.3310   -2.8060 H       1  UNL1        0.2960
      6  C          7.0530   -0.0530   -2.0290 C.3     1  UNL1        0.0470
      7  C          6.5160   -0.1240   -0.6450 C.2     1  UNL1       -0.0470
      8  C          5.7810    0.9270   -0.1150 C.2     1  UNL1        0.0040
      9  C          6.7220   -1.2140    0.1820 C.2     1  UNL1        0.0040
     10  C          5.2800    0.8950    1.1660 C.2     1  UNL1        0.0000
     11  C          6.2190   -1.2430    1.4650 C.2     1  UNL1        0.0000
     12  C          5.4920   -0.1960    1.9840 C.2     1  UNL1        0.0000
@<TRIPOS>BOND
     1     4     2    1
     2     4     5    1
     3     3     2    2
     4     2     1    1
     5     1     6    1
     6     6     7    1
     7     7     8    2
     8     7     9    1
     9     8    10    1
    10     9    11    2
    11    10    12    2
    12    11    12    1
