@<TRIPOS>MOLECULE
/home/cewinharhar/GITHUB/reincatalyze/data/processed/docking_pred/2023-Apr-25-2248_maxeplen10_maxtrainstep1000_exh16_gamma099_lrac3e-4_lrcr1e-3/f6e3ea477952fa895fac814ddb6280364cb1460b_ligand_2.pdbqt
 12 12 0 0 0
SMALL
GASTEIGER

@<TRIPOS>ATOM
      1  C          8.4090   -0.6500   -2.1290 C.3     1  UNL1        0.1270
      2  C          8.4010   -1.9100   -2.8940 C.2     1  UNL1        0.3030
      3  O          7.2960   -2.4130   -3.2350 O.2     1  UNL1       -0.2520
      4  O          9.5830   -2.5710   -3.2580 O.3     1  UNL1       -0.4810
      5  H          9.6570   -2.9490   -4.1930 H       1  UNL1        0.2960
      6  C          7.0300   -0.0190   -2.0490 C.3     1  UNL1        0.0470
      7  C          6.5000   -0.0710   -0.6620 C.2     1  UNL1       -0.0470
      8  C          6.7120   -1.1870    0.1350 C.2     1  UNL1        0.0040
      9  C          5.7720    0.9610   -0.1000 C.2     1  UNL1        0.0040
     10  C          6.2260   -1.2700    1.4200 C.2     1  UNL1        0.0000
     11  C          5.2860    0.8770    1.1870 C.2     1  UNL1        0.0000
     12  C          5.4990   -0.2340    1.9720 C.2     1  UNL1        0.0000
@<TRIPOS>BOND
     1     5     4    1
     2     4     2    1
     3     3     2    2
     4     2     1    1
     5     1     6    1
     6     6     7    1
     7     7     9    2
     8     7     8    1
     9     9    11    1
    10     8    10    2
    11    11    12    2
    12    10    12    1
