MODEL 1
REMARK VINA RESULT:      -7.3      0.000      0.000
REMARK SMILES O=C(O)CCc1ccccc1
REMARK SMILES IDX 4 1 2 2 1 3 3 4 5 6 6 7 7 8 11 9 8 10 10 11 9 12
REMARK H PARENT 3 5
REMARK Flexibility Score: inf
ROOT
ATOM      1  C   UNL     1       8.416  -0.602  -2.233  1.00  0.00     0.127 C 
ENDROOT
BRANCH   1   2
ATOM      2  C   UNL     1       8.457  -1.899  -2.930  1.00  0.00     0.303 C 
ATOM      3  O   UNL     1       9.568  -2.477  -3.082  1.00  0.00    -0.252 OA
BRANCH   2   4
ATOM      4  O   UNL     1       7.302  -2.516  -3.432  1.00  0.00    -0.481 OA
ATOM      5  H   UNL     1       6.451  -1.974  -3.491  1.00  0.00     0.296 HD
ENDBRANCH   2   4
ENDBRANCH   1   2
BRANCH   1   6
ATOM      6  C   UNL     1       7.017  -0.013  -2.200  1.00  0.00     0.047 C 
BRANCH   6   7
ATOM      7  C   UNL     1       6.501   0.056  -0.807  1.00  0.00    -0.047 A 
ATOM      8  C   UNL     1       5.884   1.207  -0.338  1.00  0.00     0.004 A 
ATOM      9  C   UNL     1       6.612  -0.994   0.085  1.00  0.00     0.004 A 
ATOM     10  C   UNL     1       5.405   1.306   0.949  1.00  0.00     0.000 A 
ATOM     11  C   UNL     1       6.132  -0.894   1.373  1.00  0.00     0.000 A 
ATOM     12  C   UNL     1       5.522   0.251   1.832  1.00  0.00     0.000 A 
ENDBRANCH   6   7
ENDBRANCH   1   6
TORSDOF 4
ENDMDL
MODEL 2
REMARK VINA RESULT:      -7.2      0.111      1.723
REMARK SMILES O=C(O)CCc1ccccc1
REMARK SMILES IDX 4 1 2 2 1 3 3 4 5 6 6 7 7 8 11 9 8 10 10 11 9 12
REMARK H PARENT 3 5
REMARK Flexibility Score: inf
ROOT
ATOM      1  C   UNL     1       8.395  -0.629  -2.154  1.00  0.00     0.127 C 
ENDROOT
BRANCH   1   2
ATOM      2  C   UNL     1       8.405  -1.903  -2.894  1.00  0.00     0.303 C 
ATOM      3  O   UNL     1       7.307  -2.427  -3.228  1.00  0.00    -0.252 OA
BRANCH   2   4
ATOM      4  O   UNL     1       9.596  -2.555  -3.244  1.00  0.00    -0.481 OA
ATOM      5  H   UNL     1       9.818  -2.663  -4.225  1.00  0.00     0.296 HD
ENDBRANCH   2   4
ENDBRANCH   1   2
BRANCH   1   6
ATOM      6  C   UNL     1       7.022   0.019  -2.145  1.00  0.00     0.047 C 
BRANCH   6   7
ATOM      7  C   UNL     1       6.480   0.101  -0.764  1.00  0.00    -0.047 A 
ATOM      8  C   UNL     1       6.620  -0.963   0.116  1.00  0.00     0.004 A 
ATOM      9  C   UNL     1       5.813   1.214  -0.287  1.00  0.00     0.004 A 
ATOM     10  C   UNL     1       6.121  -0.921   1.398  1.00  0.00     0.000 A 
ATOM     11  C   UNL     1       5.313   1.255   0.997  1.00  0.00     0.000 A 
ATOM     12  C   UNL     1       5.454   0.194   1.864  1.00  0.00     0.000 A 
ENDBRANCH   6   7
ENDBRANCH   1   6
TORSDOF 4
ENDMDL
MODEL 3
REMARK VINA RESULT:      -6.8      3.406      5.078
REMARK SMILES O=C(O)CCc1ccccc1
REMARK SMILES IDX 4 1 2 2 1 3 3 4 5 6 6 7 7 8 11 9 8 10 10 11 9 12
REMARK H PARENT 3 5
REMARK Flexibility Score: inf
ROOT
ATOM      1  C   UNL     1       4.994   1.789   0.729  1.00  0.00     0.127 C 
ENDROOT
BRANCH   1   2
ATOM      2  C   UNL     1       4.467   1.116   1.930  1.00  0.00     0.303 C 
ATOM      3  O   UNL     1       5.154   0.211   2.476  1.00  0.00    -0.252 OA
BRANCH   2   4
ATOM      4  O   UNL     1       3.225   1.450   2.490  1.00  0.00    -0.481 OA
ATOM      5  H   UNL     1       3.152   2.300   3.032  1.00  0.00     0.296 HD
ENDBRANCH   2   4
ENDBRANCH   1   2
BRANCH   1   6
ATOM      6  C   UNL     1       6.507   1.906   0.755  1.00  0.00     0.047 C 
BRANCH   6   7
ATOM      7  C   UNL     1       7.122   1.099  -0.331  1.00  0.00    -0.047 A 
ATOM      8  C   UNL     1       8.465   1.245  -0.648  1.00  0.00     0.004 A 
ATOM      9  C   UNL     1       6.406   0.182  -1.079  1.00  0.00     0.004 A 
ATOM     10  C   UNL     1       9.061   0.520  -1.655  1.00  0.00     0.000 A 
ATOM     11  C   UNL     1       7.004  -0.543  -2.087  1.00  0.00     0.000 A 
ATOM     12  C   UNL     1       8.337  -0.392  -2.397  1.00  0.00     0.000 A 
ENDBRANCH   6   7
ENDBRANCH   1   6
TORSDOF 4
ENDMDL
MODEL 4
REMARK VINA RESULT:      -6.5      2.074      2.407
REMARK SMILES O=C(O)CCc1ccccc1
REMARK SMILES IDX 4 1 2 2 1 3 3 4 5 6 6 7 7 8 11 9 8 10 10 11 9 12
REMARK H PARENT 3 5
REMARK Flexibility Score: inf
ROOT
ATOM      1  C   UNL     1       8.514   0.654  -1.681  1.00  0.00     0.127 C 
ENDROOT
BRANCH   1   2
ATOM      2  C   UNL     1       9.663   0.286  -0.835  1.00  0.00     0.303 C 
ATOM      3  O   UNL     1       9.485  -0.515   0.123  1.00  0.00    -0.252 OA
BRANCH   2   4
ATOM      4  O   UNL     1      10.950   0.794  -1.058  1.00  0.00    -0.481 OA
ATOM      5  H   UNL     1      11.153   1.741  -0.769  1.00  0.00     0.296 HD
ENDBRANCH   2   4
ENDBRANCH   1   2
BRANCH   1   6
ATOM      6  C   UNL     1       7.318  -0.252  -1.452  1.00  0.00     0.047 C 
BRANCH   6   7
ATOM      7  C   UNL     1       6.426   0.298  -0.399  1.00  0.00    -0.047 A 
ATOM      8  C   UNL     1       5.799   1.524  -0.571  1.00  0.00     0.004 A 
ATOM      9  C   UNL     1       6.181  -0.359   0.793  1.00  0.00     0.004 A 
ATOM     10  C   UNL     1       4.976   2.066   0.389  1.00  0.00     0.000 A 
ATOM     11  C   UNL     1       5.356   0.185   1.754  1.00  0.00     0.000 A 
ATOM     12  C   UNL     1       4.739   1.402   1.576  1.00  0.00     0.000 A 
ENDBRANCH   6   7
ENDBRANCH   1   6
TORSDOF 4
ENDMDL
MODEL 5
REMARK VINA RESULT:      -6.5      3.703      5.115
REMARK SMILES O=C(O)CCc1ccccc1
REMARK SMILES IDX 4 1 2 2 1 3 3 4 5 6 6 7 7 8 11 9 8 10 10 11 9 12
REMARK H PARENT 3 5
REMARK Flexibility Score: inf
ROOT
ATOM      1  C   UNL     1       5.281   2.821   0.105  1.00  0.00     0.127 C 
ENDROOT
BRANCH   1   2
ATOM      2  C   UNL     1       6.145   3.762   0.840  1.00  0.00     0.303 C 
ATOM      3  O   UNL     1       6.212   3.678   2.096  1.00  0.00    -0.252 OA
BRANCH   2   4
ATOM      4  O   UNL     1       6.900   4.749   0.189  1.00  0.00    -0.481 OA
ATOM      5  H   UNL     1       6.774   4.876  -0.806  1.00  0.00     0.296 HD
ENDBRANCH   2   4
ENDBRANCH   1   2
BRANCH   1   6
ATOM      6  C   UNL     1       5.220   1.458   0.770  1.00  0.00     0.047 C 
BRANCH   6   7
ATOM      7  C   UNL     1       6.066   0.474   0.046  1.00  0.00    -0.047 A 
ATOM      8  C   UNL     1       6.582  -0.634   0.703  1.00  0.00     0.004 A 
ATOM      9  C   UNL     1       6.389   0.606  -1.292  1.00  0.00     0.004 A 
ATOM     10  C   UNL     1       7.377  -1.558   0.063  1.00  0.00     0.000 A 
ATOM     11  C   UNL     1       7.185  -0.320  -1.931  1.00  0.00     0.000 A 
ATOM     12  C   UNL     1       7.695  -1.416  -1.272  1.00  0.00     0.000 A 
ENDBRANCH   6   7
ENDBRANCH   1   6
TORSDOF 4
ENDMDL
