@<TRIPOS>MOLECULE
/home/cewinharhar/GITHUB/reincatalyze/data/processed/docking_pred/2023-Apr-25-2248_maxeplen10_maxtrainstep1000_exh16_gamma099_lrac3e-4_lrcr1e-3/f74925e0f2dbd9eb14447f51d5c862455f02ecd6_ligand_2.pdbqt
 12 12 0 0 0
SMALL
GASTEIGER

@<TRIPOS>ATOM
      1  C          4.9940    1.7890    0.7290 C.3     1  UNL1        0.1270
      2  C          4.4670    1.1160    1.9300 C.2     1  UNL1        0.3030
      3  O          5.1540    0.2110    2.4760 O.2     1  UNL1       -0.2520
      4  O          3.2250    1.4500    2.4900 O.3     1  UNL1       -0.4810
      5  H          3.1520    2.3000    3.0320 H       1  UNL1        0.2960
      6  C          6.5070    1.9060    0.7550 C.3     1  UNL1        0.0470
      7  C          7.1220    1.0990   -0.3310 C.2     1  UNL1       -0.0470
      8  C          8.4650    1.2450   -0.6480 C.2     1  UNL1        0.0040
      9  C          6.4060    0.1820   -1.0790 C.2     1  UNL1        0.0040
     10  C          9.0610    0.5200   -1.6550 C.2     1  UNL1        0.0000
     11  C          7.0040   -0.5430   -2.0870 C.2     1  UNL1        0.0000
     12  C          8.3370   -0.3920   -2.3970 C.2     1  UNL1        0.0000
@<TRIPOS>BOND
     1    12    11    2
     2    12    10    1
     3    11     9    1
     4    10     8    2
     5     9     7    2
     6     8     7    1
     7     7     6    1
     8     1     6    1
     9     1     2    1
    10     2     3    2
    11     2     4    1
    12     4     5    1
