@<TRIPOS>MOLECULE
/home/cewinharhar/GITHUB/reincatalyze/data/processed/docking_pred/2023-Apr-25-2248_maxeplen10_maxtrainstep1000_exh16_gamma099_lrac3e-4_lrcr1e-3/f74925e0f2dbd9eb14447f51d5c862455f02ecd6_ligand_2.pdbqt
 12 12 0 0 0
SMALL
GASTEIGER

@<TRIPOS>ATOM
      1  C          8.4160   -0.6020   -2.2330 C.3     1  UNL1        0.1270
      2  C          8.4570   -1.8990   -2.9300 C.2     1  UNL1        0.3030
      3  O          9.5680   -2.4770   -3.0820 O.2     1  UNL1       -0.2520
      4  O          7.3020   -2.5160   -3.4320 O.3     1  UNL1       -0.4810
      5  H          6.4510   -1.9740   -3.4910 H       1  UNL1        0.2960
      6  C          7.0170   -0.0130   -2.2000 C.3     1  UNL1        0.0470
      7  C          6.5010    0.0560   -0.8070 C.2     1  UNL1       -0.0470
      8  C          5.8840    1.2070   -0.3380 C.2     1  UNL1        0.0040
      9  C          6.6120   -0.9940    0.0850 C.2     1  UNL1        0.0040
     10  C          5.4050    1.3060    0.9490 C.2     1  UNL1        0.0000
     11  C          6.1320   -0.8940    1.3730 C.2     1  UNL1        0.0000
     12  C          5.5220    0.2510    1.8320 C.2     1  UNL1        0.0000
@<TRIPOS>BOND
     1     5     4    1
     2     4     2    1
     3     3     2    2
     4     2     1    1
     5     1     6    1
     6     6     7    1
     7     7     8    2
     8     7     9    1
     9     8    10    1
    10     9    11    2
    11    10    12    2
    12    11    12    1
