@<TRIPOS>MOLECULE
/home/cewinharhar/GITHUB/reincatalyze/data/processed/docking_pred/2023-Apr-25-2248_maxeplen10_maxtrainstep1000_exh16_gamma099_lrac3e-4_lrcr1e-3/f74925e0f2dbd9eb14447f51d5c862455f02ecd6_ligand_2.pdbqt
 12 12 0 0 0
SMALL
GASTEIGER

@<TRIPOS>ATOM
      1  C          5.2810    2.8210    0.1050 C.3     1  UNL1        0.1270
      2  C          6.1450    3.7620    0.8400 C.2     1  UNL1        0.3030
      3  O          6.2120    3.6780    2.0960 O.2     1  UNL1       -0.2520
      4  O          6.9000    4.7490    0.1890 O.3     1  UNL1       -0.4810
      5  H          6.7740    4.8760   -0.8060 H       1  UNL1        0.2960
      6  C          5.2200    1.4580    0.7700 C.3     1  UNL1        0.0470
      7  C          6.0660    0.4740    0.0460 C.2     1  UNL1       -0.0470
      8  C          6.5820   -0.6340    0.7030 C.2     1  UNL1        0.0040
      9  C          6.3890    0.6060   -1.2920 C.2     1  UNL1        0.0040
     10  C          7.3770   -1.5580    0.0630 C.2     1  UNL1        0.0000
     11  C          7.1850   -0.3200   -1.9310 C.2     1  UNL1        0.0000
     12  C          7.6950   -1.4160   -1.2720 C.2     1  UNL1        0.0000
@<TRIPOS>BOND
     1    11     9    1
     2    11    12    2
     3     9     7    2
     4    12    10    1
     5     5     4    1
     6     7     8    1
     7     7     6    1
     8    10     8    2
     9     1     6    1
    10     1     2    1
    11     4     2    1
    12     2     3    2
