@<TRIPOS>MOLECULE
/home/cewinharhar/GITHUB/reincatalyze/data/processed/docking_pred/2023-Apr-25-2248_maxeplen10_maxtrainstep1000_exh16_gamma099_lrac3e-4_lrcr1e-3/f74925e0f2dbd9eb14447f51d5c862455f02ecd6_ligand_2.pdbqt
 12 12 0 0 0
SMALL
GASTEIGER

@<TRIPOS>ATOM
      1  C          8.3950   -0.6290   -2.1540 C.3     1  UNL1        0.1270
      2  C          8.4050   -1.9030   -2.8940 C.2     1  UNL1        0.3030
      3  O          7.3070   -2.4270   -3.2280 O.2     1  UNL1       -0.2520
      4  O          9.5960   -2.5550   -3.2440 O.3     1  UNL1       -0.4810
      5  H          9.8180   -2.6630   -4.2250 H       1  UNL1        0.2960
      6  C          7.0220    0.0190   -2.1450 C.3     1  UNL1        0.0470
      7  C          6.4800    0.1010   -0.7640 C.2     1  UNL1       -0.0470
      8  C          6.6200   -0.9630    0.1160 C.2     1  UNL1        0.0040
      9  C          5.8130    1.2140   -0.2870 C.2     1  UNL1        0.0040
     10  C          6.1210   -0.9210    1.3980 C.2     1  UNL1        0.0000
     11  C          5.3130    1.2550    0.9970 C.2     1  UNL1        0.0000
     12  C          5.4540    0.1940    1.8640 C.2     1  UNL1        0.0000
@<TRIPOS>BOND
     1     5     4    1
     2     4     2    1
     3     3     2    2
     4     2     1    1
     5     1     6    1
     6     6     7    1
     7     7     9    2
     8     7     8    1
     9     9    11    1
    10     8    10    2
    11    11    12    2
    12    10    12    1
