MODEL 1
REMARK VINA RESULT:      -7.3      0.000      0.000
REMARK SMILES O=C(O)CCc1ccccc1
REMARK SMILES IDX 4 1 2 2 1 3 3 4 5 6 6 7 7 8 11 9 8 10 10 11 9 12
REMARK H PARENT 3 5
REMARK Flexibility Score: inf
ROOT
ATOM      1  C   UNL     1       8.407  -0.714  -2.054  1.00  0.00     0.127 C 
ENDROOT
BRANCH   1   2
ATOM      2  C   UNL     1       8.421  -1.940  -2.872  1.00  0.00     0.303 C 
ATOM      3  O   UNL     1       9.517  -2.532  -3.069  1.00  0.00    -0.252 OA
BRANCH   2   4
ATOM      4  O   UNL     1       7.255  -2.473  -3.441  1.00  0.00    -0.481 OA
ATOM      5  H   UNL     1       6.382  -1.982  -3.303  1.00  0.00     0.296 HD
ENDBRANCH   2   4
ENDBRANCH   1   2
BRANCH   1   6
ATOM      6  C   UNL     1       7.051  -0.031  -2.067  1.00  0.00     0.047 C 
BRANCH   6   7
ATOM      7  C   UNL     1       6.479   0.043  -0.697  1.00  0.00    -0.047 A 
ATOM      8  C   UNL     1       5.820   1.185  -0.266  1.00  0.00     0.004 A 
ATOM      9  C   UNL     1       6.576  -0.996   0.211  1.00  0.00     0.004 A 
ATOM     10  C   UNL     1       5.289   1.288   0.999  1.00  0.00     0.000 A 
ATOM     11  C   UNL     1       6.043  -0.891   1.478  1.00  0.00     0.000 A 
ATOM     12  C   UNL     1       5.392   0.246   1.899  1.00  0.00     0.000 A 
ENDBRANCH   6   7
ENDBRANCH   1   6
TORSDOF 4
ENDMDL
MODEL 2
REMARK VINA RESULT:      -7.3      0.130      1.426
REMARK SMILES O=C(O)CCc1ccccc1
REMARK SMILES IDX 4 1 2 2 1 3 3 4 5 6 6 7 7 8 11 9 8 10 10 11 9 12
REMARK H PARENT 3 5
REMARK Flexibility Score: inf
ROOT
ATOM      1  C   UNL     1       8.404  -0.591  -2.203  1.00  0.00     0.127 C 
ENDROOT
BRANCH   1   2
ATOM      2  C   UNL     1       8.450  -1.883  -2.911  1.00  0.00     0.303 C 
ATOM      3  O   UNL     1       9.561  -2.460  -3.059  1.00  0.00    -0.252 OA
BRANCH   2   4
ATOM      4  O   UNL     1       7.298  -2.496  -3.424  1.00  0.00    -0.481 OA
ATOM      5  H   UNL     1       7.209  -3.500  -3.346  1.00  0.00     0.296 HD
ENDBRANCH   2   4
ENDBRANCH   1   2
BRANCH   1   6
ATOM      6  C   UNL     1       7.012   0.014  -2.204  1.00  0.00     0.047 C 
BRANCH   6   7
ATOM      7  C   UNL     1       6.481   0.131  -0.821  1.00  0.00    -0.047 A 
ATOM      8  C   UNL     1       6.602  -0.922   0.075  1.00  0.00     0.004 A 
ATOM      9  C   UNL     1       5.841   1.266  -0.358  1.00  0.00     0.004 A 
ATOM     10  C   UNL     1       6.112  -0.849   1.359  1.00  0.00     0.000 A 
ATOM     11  C   UNL     1       5.350   1.338   0.928  1.00  0.00     0.000 A 
ATOM     12  C   UNL     1       5.473   0.289   1.811  1.00  0.00     0.000 A 
ENDBRANCH   6   7
ENDBRANCH   1   6
TORSDOF 4
ENDMDL
MODEL 3
REMARK VINA RESULT:      -6.8      3.395      5.088
REMARK SMILES O=C(O)CCc1ccccc1
REMARK SMILES IDX 4 1 2 2 1 3 3 4 5 6 6 7 7 8 11 9 8 10 10 11 9 12
REMARK H PARENT 3 5
REMARK Flexibility Score: inf
ROOT
ATOM      1  C   UNL     1       5.011   1.744   0.717  1.00  0.00     0.127 C 
ENDROOT
BRANCH   1   2
ATOM      2  C   UNL     1       4.478   1.097   1.929  1.00  0.00     0.303 C 
ATOM      3  O   UNL     1       5.160   0.198   2.493  1.00  0.00    -0.252 OA
BRANCH   2   4
ATOM      4  O   UNL     1       3.237   1.447   2.480  1.00  0.00    -0.481 OA
ATOM      5  H   UNL     1       2.639   2.076   1.962  1.00  0.00     0.296 HD
ENDBRANCH   2   4
ENDBRANCH   1   2
BRANCH   1   6
ATOM      6  C   UNL     1       6.524   1.859   0.745  1.00  0.00     0.047 C 
BRANCH   6   7
ATOM      7  C   UNL     1       7.140   1.057  -0.344  1.00  0.00    -0.047 A 
ATOM      8  C   UNL     1       8.489   1.187  -0.643  1.00  0.00     0.004 A 
ATOM      9  C   UNL     1       6.420   0.161  -1.113  1.00  0.00     0.004 A 
ATOM     10  C   UNL     1       9.087   0.467  -1.652  1.00  0.00     0.000 A 
ATOM     11  C   UNL     1       7.020  -0.560  -2.123  1.00  0.00     0.000 A 
ATOM     12  C   UNL     1       8.359  -0.424  -2.414  1.00  0.00     0.000 A 
ENDBRANCH   6   7
ENDBRANCH   1   6
TORSDOF 4
ENDMDL
MODEL 4
REMARK VINA RESULT:      -6.5      2.078      2.407
REMARK SMILES O=C(O)CCc1ccccc1
REMARK SMILES IDX 4 1 2 2 1 3 3 4 5 6 6 7 7 8 11 9 8 10 10 11 9 12
REMARK H PARENT 3 5
REMARK Flexibility Score: inf
ROOT
ATOM      1  C   UNL     1       8.513   0.663  -1.639  1.00  0.00     0.127 C 
ENDROOT
BRANCH   1   2
ATOM      2  C   UNL     1       9.669   0.285  -0.806  1.00  0.00     0.303 C 
ATOM      3  O   UNL     1       9.497  -0.513   0.155  1.00  0.00    -0.252 OA
BRANCH   2   4
ATOM      4  O   UNL     1      10.958   0.782  -1.047  1.00  0.00    -0.481 OA
ATOM      5  H   UNL     1      11.533   1.038  -0.255  1.00  0.00     0.296 HD
ENDBRANCH   2   4
ENDBRANCH   1   2
BRANCH   1   6
ATOM      6  C   UNL     1       7.323  -0.253  -1.417  1.00  0.00     0.047 C 
BRANCH   6   7
ATOM      7  C   UNL     1       6.421   0.290  -0.369  1.00  0.00    -0.047 A 
ATOM      8  C   UNL     1       5.798   1.518  -0.538  1.00  0.00     0.004 A 
ATOM      9  C   UNL     1       6.162  -0.377   0.815  1.00  0.00     0.004 A 
ATOM     10  C   UNL     1       4.966   2.053   0.419  1.00  0.00     0.000 A 
ATOM     11  C   UNL     1       5.328   0.159   1.772  1.00  0.00     0.000 A 
ATOM     12  C   UNL     1       4.715   1.379   1.597  1.00  0.00     0.000 A 
ENDBRANCH   6   7
ENDBRANCH   1   6
TORSDOF 4
ENDMDL
MODEL 5
REMARK VINA RESULT:      -6.5      1.953      2.887
REMARK SMILES O=C(O)CCc1ccccc1
REMARK SMILES IDX 4 1 2 2 1 3 3 4 5 6 6 7 7 8 11 9 8 10 10 11 9 12
REMARK H PARENT 3 5
REMARK Flexibility Score: inf
ROOT
ATOM      1  C   UNL     1       8.275  -1.707   1.198  1.00  0.00     0.127 C 
ENDROOT
BRANCH   1   2
ATOM      2  C   UNL     1       8.661  -2.926   0.466  1.00  0.00     0.303 C 
ATOM      3  O   UNL     1       9.401  -3.774   1.037  1.00  0.00    -0.252 OA
BRANCH   2   4
ATOM      4  O   UNL     1       8.234  -3.179  -0.845  1.00  0.00    -0.481 OA
ATOM      5  H   UNL     1       7.607  -3.954  -1.009  1.00  0.00     0.296 HD
ENDBRANCH   2   4
ENDBRANCH   1   2
BRANCH   1   6
ATOM      6  C   UNL     1       6.772  -1.608   1.394  1.00  0.00     0.047 C 
BRANCH   6   7
ATOM      7  C   UNL     1       6.244  -0.339   0.829  1.00  0.00    -0.047 A 
ATOM      8  C   UNL     1       5.463   0.509   1.601  1.00  0.00     0.004 A 
ATOM      9  C   UNL     1       6.486   0.058  -0.474  1.00  0.00     0.004 A 
ATOM     10  C   UNL     1       4.951   1.685   1.103  1.00  0.00     0.000 A 
ATOM     11  C   UNL     1       5.972   1.236  -0.971  1.00  0.00     0.000 A 
ATOM     12  C   UNL     1       5.197   2.072  -0.199  1.00  0.00     0.000 A 
ENDBRANCH   6   7
ENDBRANCH   1   6
TORSDOF 4
ENDMDL
