@<TRIPOS>MOLECULE
/home/cewinharhar/GITHUB/reincatalyze/data/processed/docking_pred/2023-Apr-25-2248_maxeplen10_maxtrainstep1000_exh16_gamma099_lrac3e-4_lrcr1e-3/f9550a52c30547fdb3e6e224a3b8a38c5560e948_ligand_2.pdbqt
 12 12 0 0 0
SMALL
GASTEIGER

@<TRIPOS>ATOM
      1  C          8.5130    0.6630   -1.6390 C.3     1  UNL1        0.1270
      2  C          9.6690    0.2850   -0.8060 C.2     1  UNL1        0.3030
      3  O          9.4970   -0.5130    0.1550 O.2     1  UNL1       -0.2520
      4  O         10.9580    0.7820   -1.0470 O.3     1  UNL1       -0.4810
      5  H         11.5330    1.0380   -0.2550 H       1  UNL1        0.2960
      6  C          7.3230   -0.2530   -1.4170 C.3     1  UNL1        0.0470
      7  C          6.4210    0.2900   -0.3690 C.2     1  UNL1       -0.0470
      8  C          5.7980    1.5180   -0.5380 C.2     1  UNL1        0.0040
      9  C          6.1620   -0.3770    0.8150 C.2     1  UNL1        0.0040
     10  C          4.9660    2.0530    0.4190 C.2     1  UNL1        0.0000
     11  C          5.3280    0.1590    1.7720 C.2     1  UNL1        0.0000
     12  C          4.7150    1.3790    1.5970 C.2     1  UNL1        0.0000
@<TRIPOS>BOND
     1     1     6    1
     2     1     2    1
     3     6     7    1
     4     4     2    1
     5     4     5    1
     6     2     3    2
     7     8     7    2
     8     8    10    1
     9     7     9    1
    10    10    12    2
    11     9    11    2
    12    12    11    1
