@<TRIPOS>MOLECULE
/home/cewinharhar/GITHUB/reincatalyze/data/processed/docking_pred/2023-Apr-25-2248_maxeplen10_maxtrainstep1000_exh16_gamma099_lrac3e-4_lrcr1e-3/f9550a52c30547fdb3e6e224a3b8a38c5560e948_ligand_2.pdbqt
 12 12 0 0 0
SMALL
GASTEIGER

@<TRIPOS>ATOM
      1  C          8.4070   -0.7140   -2.0540 C.3     1  UNL1        0.1270
      2  C          8.4210   -1.9400   -2.8720 C.2     1  UNL1        0.3030
      3  O          9.5170   -2.5320   -3.0690 O.2     1  UNL1       -0.2520
      4  O          7.2550   -2.4730   -3.4410 O.3     1  UNL1       -0.4810
      5  H          6.3820   -1.9820   -3.3030 H       1  UNL1        0.2960
      6  C          7.0510   -0.0310   -2.0670 C.3     1  UNL1        0.0470
      7  C          6.4790    0.0430   -0.6970 C.2     1  UNL1       -0.0470
      8  C          5.8200    1.1850   -0.2660 C.2     1  UNL1        0.0040
      9  C          6.5760   -0.9960    0.2110 C.2     1  UNL1        0.0040
     10  C          5.2890    1.2880    0.9990 C.2     1  UNL1        0.0000
     11  C          6.0430   -0.8910    1.4780 C.2     1  UNL1        0.0000
     12  C          5.3920    0.2460    1.8990 C.2     1  UNL1        0.0000
@<TRIPOS>BOND
     1     4     5    1
     2     4     2    1
     3     3     2    2
     4     2     1    1
     5     6     1    1
     6     6     7    1
     7     7     8    2
     8     7     9    1
     9     8    10    1
    10     9    11    2
    11    10    12    2
    12    11    12    1
