@<TRIPOS>MOLECULE
/home/cewinharhar/GITHUB/reincatalyze/data/processed/docking_pred/2023-Apr-25-2248_maxeplen10_maxtrainstep1000_exh16_gamma099_lrac3e-4_lrcr1e-3/f9550a52c30547fdb3e6e224a3b8a38c5560e948_ligand_2.pdbqt
 12 12 0 0 0
SMALL
GASTEIGER

@<TRIPOS>ATOM
      1  C          5.0110    1.7440    0.7170 C.3     1  UNL1        0.1270
      2  C          4.4780    1.0970    1.9290 C.2     1  UNL1        0.3030
      3  O          5.1600    0.1980    2.4930 O.2     1  UNL1       -0.2520
      4  O          3.2370    1.4470    2.4800 O.3     1  UNL1       -0.4810
      5  H          2.6390    2.0760    1.9620 H       1  UNL1        0.2960
      6  C          6.5240    1.8590    0.7450 C.3     1  UNL1        0.0470
      7  C          7.1400    1.0570   -0.3440 C.2     1  UNL1       -0.0470
      8  C          8.4890    1.1870   -0.6430 C.2     1  UNL1        0.0040
      9  C          6.4200    0.1610   -1.1130 C.2     1  UNL1        0.0040
     10  C          9.0870    0.4670   -1.6520 C.2     1  UNL1        0.0000
     11  C          7.0200   -0.5600   -2.1230 C.2     1  UNL1        0.0000
     12  C          8.3590   -0.4240   -2.4140 C.2     1  UNL1        0.0000
@<TRIPOS>BOND
     1    12    11    2
     2    12    10    1
     3    11     9    1
     4    10     8    2
     5     9     7    2
     6     8     7    1
     7     7     6    1
     8     1     6    1
     9     1     2    1
    10     2     4    1
    11     2     3    2
    12     5     4    1
