@<TRIPOS>MOLECULE
/home/cewinharhar/GITHUB/reincatalyze/data/processed/docking_pred/2023-Apr-25-2248_maxeplen10_maxtrainstep1000_exh16_gamma099_lrac3e-4_lrcr1e-3/f9550a52c30547fdb3e6e224a3b8a38c5560e948_ligand_2.pdbqt
 12 12 0 0 0
SMALL
GASTEIGER

@<TRIPOS>ATOM
      1  C          8.2750   -1.7070    1.1980 C.3     1  UNL1        0.1270
      2  C          8.6610   -2.9260    0.4660 C.2     1  UNL1        0.3030
      3  O          9.4010   -3.7740    1.0370 O.2     1  UNL1       -0.2520
      4  O          8.2340   -3.1790   -0.8450 O.3     1  UNL1       -0.4810
      5  H          7.6070   -3.9540   -1.0090 H       1  UNL1        0.2960
      6  C          6.7720   -1.6080    1.3940 C.3     1  UNL1        0.0470
      7  C          6.2440   -0.3390    0.8290 C.2     1  UNL1       -0.0470
      8  C          5.4630    0.5090    1.6010 C.2     1  UNL1        0.0040
      9  C          6.4860    0.0580   -0.4740 C.2     1  UNL1        0.0040
     10  C          4.9510    1.6850    1.1030 C.2     1  UNL1        0.0000
     11  C          5.9720    1.2360   -0.9710 C.2     1  UNL1        0.0000
     12  C          5.1970    2.0720   -0.1990 C.2     1  UNL1        0.0000
@<TRIPOS>BOND
     1     5     4    1
     2    11     9    1
     3    11    12    2
     4     4     2    1
     5     9     7    2
     6    12    10    1
     7     2     3    2
     8     2     1    1
     9     7     6    1
    10     7     8    1
    11    10     8    2
    12     1     6    1
