@<TRIPOS>MOLECULE
/home/cewinharhar/GITHUB/reincatalyze/data/processed/docking_pred/2023-Apr-25-2248_maxeplen10_maxtrainstep1000_exh16_gamma099_lrac3e-4_lrcr1e-3/f9550a52c30547fdb3e6e224a3b8a38c5560e948_ligand_2.pdbqt
 12 12 0 0 0
SMALL
GASTEIGER

@<TRIPOS>ATOM
      1  C          8.4040   -0.5910   -2.2030 C.3     1  UNL1        0.1270
      2  C          8.4500   -1.8830   -2.9110 C.2     1  UNL1        0.3030
      3  O          9.5610   -2.4600   -3.0590 O.2     1  UNL1       -0.2520
      4  O          7.2980   -2.4960   -3.4240 O.3     1  UNL1       -0.4810
      5  H          7.2090   -3.5000   -3.3460 H       1  UNL1        0.2960
      6  C          7.0120    0.0140   -2.2040 C.3     1  UNL1        0.0470
      7  C          6.4810    0.1310   -0.8210 C.2     1  UNL1       -0.0470
      8  C          6.6020   -0.9220    0.0750 C.2     1  UNL1        0.0040
      9  C          5.8410    1.2660   -0.3580 C.2     1  UNL1        0.0040
     10  C          6.1120   -0.8490    1.3590 C.2     1  UNL1        0.0000
     11  C          5.3500    1.3380    0.9280 C.2     1  UNL1        0.0000
     12  C          5.4730    0.2890    1.8110 C.2     1  UNL1        0.0000
@<TRIPOS>BOND
     1     4     5    1
     2     4     2    1
     3     3     2    2
     4     2     1    1
     5     6     1    1
     6     6     7    1
     7     7     9    2
     8     7     8    1
     9     9    11    1
    10     8    10    2
    11    11    12    2
    12    10    12    1
