@<TRIPOS>MOLECULE
/home/cewinharhar/GITHUB/reincatalyze/data/processed/docking_pred/2023-Apr-25-2248_maxeplen10_maxtrainstep1000_exh16_gamma099_lrac3e-4_lrcr1e-3/faf685cb0c2e1ff185f0c147bdf23d27aa2a460b_ligand_2.pdbqt
 12 12 0 0 0
SMALL
GASTEIGER

@<TRIPOS>ATOM
      1  C          8.2630    0.2180   -2.1770 C.3     1  UNL1        0.1270
      2  C          9.3860    0.3620   -1.2340 C.2     1  UNL1        0.3030
      3  O          9.4520   -0.4090   -0.2390 O.2     1  UNL1       -0.2520
      4  O         10.3880    1.3280   -1.4060 O.3     1  UNL1       -0.4810
      5  H         11.3530    1.0510   -1.2890 H       1  UNL1        0.2960
      6  C          7.1210   -0.5930   -1.5910 C.3     1  UNL1        0.0470
      7  C          6.3470    0.2110   -0.6090 C.2     1  UNL1       -0.0470
      8  C          5.8250    1.4470   -0.9610 C.2     1  UNL1        0.0040
      9  C          6.1150   -0.2130    0.6870 C.2     1  UNL1        0.0040
     10  C          5.1130    2.2190   -0.0720 C.2     1  UNL1        0.0000
     11  C          5.4020    0.5620    1.5760 C.2     1  UNL1        0.0000
     12  C          4.8880    1.7880    1.2200 C.2     1  UNL1        0.0000
@<TRIPOS>BOND
     1     1     6    1
     2     1     2    1
     3     6     7    1
     4     4     5    1
     5     4     2    1
     6     2     3    2
     7     8     7    2
     8     8    10    1
     9     7     9    1
    10    10    12    2
    11     9    11    2
    12    12    11    1
