@<TRIPOS>MOLECULE
/home/cewinharhar/GITHUB/reincatalyze/data/processed/docking_pred/2023-Apr-25-2248_maxeplen10_maxtrainstep1000_exh16_gamma099_lrac3e-4_lrcr1e-3/faf685cb0c2e1ff185f0c147bdf23d27aa2a460b_ligand_2.pdbqt
 12 12 0 0 0
SMALL
GASTEIGER

@<TRIPOS>ATOM
      1  C          4.9830    1.7860    0.7220 C.3     1  UNL1        0.1270
      2  C          4.4650    1.1160    1.9280 C.2     1  UNL1        0.3030
      3  O          5.1600    0.2160    2.4740 O.2     1  UNL1       -0.2520
      4  O          3.2240    1.4440    2.4920 O.3     1  UNL1       -0.4810
      5  H          3.2100    1.9260    3.3810 H       1  UNL1        0.2960
      6  C          6.4940    1.9220    0.7450 C.3     1  UNL1        0.0470
      7  C          7.1190    1.1070   -0.3290 C.2     1  UNL1       -0.0470
      8  C          8.4680    1.2390   -0.6240 C.2     1  UNL1        0.0040
      9  C          6.4060    0.1960   -1.0880 C.2     1  UNL1        0.0040
     10  C          9.0740    0.5060   -1.6190 C.2     1  UNL1        0.0000
     11  C          7.0140   -0.5370   -2.0840 C.2     1  UNL1        0.0000
     12  C          8.3530   -0.4000   -2.3710 C.2     1  UNL1        0.0000
@<TRIPOS>BOND
     1    12    11    2
     2    12    10    1
     3    11     9    1
     4    10     8    2
     5     9     7    2
     6     8     7    1
     7     7     6    1
     8     1     6    1
     9     1     2    1
    10     2     3    2
    11     2     4    1
    12     4     5    1
