@<TRIPOS>MOLECULE
/home/cewinharhar/GITHUB/reincatalyze/data/processed/docking_pred/2023-Apr-25-2248_maxeplen10_maxtrainstep1000_exh16_gamma099_lrac3e-4_lrcr1e-3/faf685cb0c2e1ff185f0c147bdf23d27aa2a460b_ligand_2.pdbqt
 12 12 0 0 0
SMALL
GASTEIGER

@<TRIPOS>ATOM
      1  C          8.4070   -0.6920   -2.0770 C.3     1  UNL1        0.1270
      2  C          8.4100   -1.9280   -2.8790 C.2     1  UNL1        0.3030
      3  O          7.3090   -2.4290   -3.2360 O.2     1  UNL1       -0.2520
      4  O          9.5970   -2.5670   -3.2630 O.3     1  UNL1       -0.4810
      5  H         10.1340   -2.1740   -4.0250 H       1  UNL1        0.2960
      6  C          7.0580    0.0050   -2.1010 C.3     1  UNL1        0.0470
      7  C          6.4800    0.0940   -0.7340 C.2     1  UNL1       -0.0470
      8  C          5.8070    1.2360   -0.3240 C.2     1  UNL1        0.0040
      9  C          6.5860   -0.9280    0.1910 C.2     1  UNL1        0.0040
     10  C          5.2700    1.3530    0.9380 C.2     1  UNL1        0.0000
     11  C          6.0480   -0.8090    1.4540 C.2     1  UNL1        0.0000
     12  C          5.3820    0.3270    1.8550 C.2     1  UNL1        0.0000
@<TRIPOS>BOND
     1     5     4    1
     2     4     2    1
     3     3     2    2
     4     2     1    1
     5     6     1    1
     6     6     7    1
     7     7     8    2
     8     7     9    1
     9     8    10    1
    10     9    11    2
    11    10    12    2
    12    11    12    1
