@<TRIPOS>MOLECULE
/home/cewinharhar/GITHUB/reincatalyze/data/processed/docking_pred/2023-Apr-25-2248_maxeplen10_maxtrainstep1000_exh16_gamma099_lrac3e-4_lrcr1e-3/faf685cb0c2e1ff185f0c147bdf23d27aa2a460b_ligand_2.pdbqt
 12 12 0 0 0
SMALL
GASTEIGER

@<TRIPOS>ATOM
      1  C          8.2670   -1.6330    1.0210 C.3     1  UNL1        0.1270
      2  C          8.5460   -2.8610    0.2560 C.2     1  UNL1        0.3030
      3  O          9.1710   -3.8020    0.8150 O.2     1  UNL1       -0.2520
      4  O          8.1400   -3.0200   -1.0770 O.3     1  UNL1       -0.4810
      5  H          8.6820   -3.6250   -1.6790 H       1  UNL1        0.2960
      6  C          6.7940   -1.4910    1.3610 C.3     1  UNL1        0.0470
      7  C          6.2370   -0.2330    0.7990 C.2     1  UNL1       -0.0470
      8  C          5.4460    0.6000    1.5780 C.2     1  UNL1        0.0040
      9  C          6.4600    0.1680   -0.5050 C.2     1  UNL1        0.0040
     10  C          4.9060    1.7650    1.0840 C.2     1  UNL1        0.0000
     11  C          5.9190    1.3360   -0.9980 C.2     1  UNL1        0.0000
     12  C          5.1340    2.1560   -0.2200 C.2     1  UNL1        0.0000
@<TRIPOS>BOND
     1     5     4    1
     2     4     2    1
     3    11     9    1
     4    11    12    2
     5     9     7    2
     6    12    10    1
     7     2     3    2
     8     2     1    1
     9     7     6    1
    10     7     8    1
    11     1     6    1
    12    10     8    2
