MODEL 1
REMARK VINA RESULT:      -7.3      0.000      0.000
REMARK SMILES O=C(O)CCc1ccccc1
REMARK SMILES IDX 4 1 2 2 1 3 3 4 5 6 6 7 7 8 11 9 8 10 10 11 9 12
REMARK H PARENT 3 5
REMARK Flexibility Score: inf
ROOT
ATOM      1  C   UNL     1       8.407  -0.692  -2.077  1.00  0.00     0.127 C 
ENDROOT
BRANCH   1   2
ATOM      2  C   UNL     1       8.410  -1.928  -2.879  1.00  0.00     0.303 C 
ATOM      3  O   UNL     1       7.309  -2.429  -3.236  1.00  0.00    -0.252 OA
BRANCH   2   4
ATOM      4  O   UNL     1       9.597  -2.567  -3.263  1.00  0.00    -0.481 OA
ATOM      5  H   UNL     1      10.134  -2.174  -4.025  1.00  0.00     0.296 HD
ENDBRANCH   2   4
ENDBRANCH   1   2
BRANCH   1   6
ATOM      6  C   UNL     1       7.058   0.005  -2.101  1.00  0.00     0.047 C 
BRANCH   6   7
ATOM      7  C   UNL     1       6.480   0.094  -0.734  1.00  0.00    -0.047 A 
ATOM      8  C   UNL     1       5.807   1.236  -0.324  1.00  0.00     0.004 A 
ATOM      9  C   UNL     1       6.586  -0.928   0.191  1.00  0.00     0.004 A 
ATOM     10  C   UNL     1       5.270   1.353   0.938  1.00  0.00     0.000 A 
ATOM     11  C   UNL     1       6.048  -0.809   1.454  1.00  0.00     0.000 A 
ATOM     12  C   UNL     1       5.382   0.327   1.855  1.00  0.00     0.000 A 
ENDBRANCH   6   7
ENDBRANCH   1   6
TORSDOF 4
ENDMDL
MODEL 2
REMARK VINA RESULT:      -7.2      0.036      1.421
REMARK SMILES O=C(O)CCc1ccccc1
REMARK SMILES IDX 4 1 2 2 1 3 3 4 5 6 6 7 7 8 11 9 8 10 10 11 9 12
REMARK H PARENT 3 5
REMARK Flexibility Score: inf
ROOT
ATOM      1  C   UNL     1       8.389  -0.670  -2.095  1.00  0.00     0.127 C 
ENDROOT
BRANCH   1   2
ATOM      2  C   UNL     1       8.393  -1.915  -2.883  1.00  0.00     0.303 C 
ATOM      3  O   UNL     1       7.293  -2.414  -3.245  1.00  0.00    -0.252 OA
BRANCH   2   4
ATOM      4  O   UNL     1       9.580  -2.567  -3.247  1.00  0.00    -0.481 OA
ATOM      5  H   UNL     1       9.547  -3.257  -3.985  1.00  0.00     0.296 HD
ENDBRANCH   2   4
ENDBRANCH   1   2
BRANCH   1   6
ATOM      6  C   UNL     1       7.039   0.024  -2.124  1.00  0.00     0.047 C 
BRANCH   6   7
ATOM      7  C   UNL     1       6.470   0.139  -0.756  1.00  0.00    -0.047 A 
ATOM      8  C   UNL     1       6.599  -0.900   0.154  1.00  0.00     0.004 A 
ATOM      9  C   UNL     1       5.784   1.259  -0.323  1.00  0.00     0.004 A 
ATOM     10  C   UNL     1       6.074  -0.828   1.424  1.00  0.00     0.000 A 
ATOM     11  C   UNL     1       5.259   1.330   0.949  1.00  0.00     0.000 A 
ATOM     12  C   UNL     1       5.390   0.294   1.846  1.00  0.00     0.000 A 
ENDBRANCH   6   7
ENDBRANCH   1   6
TORSDOF 4
ENDMDL
MODEL 3
REMARK VINA RESULT:      -6.8      3.329      5.169
REMARK SMILES O=C(O)CCc1ccccc1
REMARK SMILES IDX 4 1 2 2 1 3 3 4 5 6 6 7 7 8 11 9 8 10 10 11 9 12
REMARK H PARENT 3 5
REMARK Flexibility Score: inf
ROOT
ATOM      1  C   UNL     1       4.983   1.786   0.722  1.00  0.00     0.127 C 
ENDROOT
BRANCH   1   2
ATOM      2  C   UNL     1       4.465   1.116   1.928  1.00  0.00     0.303 C 
ATOM      3  O   UNL     1       5.160   0.216   2.474  1.00  0.00    -0.252 OA
BRANCH   2   4
ATOM      4  O   UNL     1       3.224   1.444   2.492  1.00  0.00    -0.481 OA
ATOM      5  H   UNL     1       3.210   1.926   3.381  1.00  0.00     0.296 HD
ENDBRANCH   2   4
ENDBRANCH   1   2
BRANCH   1   6
ATOM      6  C   UNL     1       6.494   1.922   0.745  1.00  0.00     0.047 C 
BRANCH   6   7
ATOM      7  C   UNL     1       7.119   1.107  -0.329  1.00  0.00    -0.047 A 
ATOM      8  C   UNL     1       8.468   1.239  -0.624  1.00  0.00     0.004 A 
ATOM      9  C   UNL     1       6.406   0.196  -1.088  1.00  0.00     0.004 A 
ATOM     10  C   UNL     1       9.074   0.506  -1.619  1.00  0.00     0.000 A 
ATOM     11  C   UNL     1       7.014  -0.537  -2.084  1.00  0.00     0.000 A 
ATOM     12  C   UNL     1       8.353  -0.400  -2.371  1.00  0.00     0.000 A 
ENDBRANCH   6   7
ENDBRANCH   1   6
TORSDOF 4
ENDMDL
MODEL 4
REMARK VINA RESULT:      -6.6      1.931      2.249
REMARK SMILES O=C(O)CCc1ccccc1
REMARK SMILES IDX 4 1 2 2 1 3 3 4 5 6 6 7 7 8 11 9 8 10 10 11 9 12
REMARK H PARENT 3 5
REMARK Flexibility Score: inf
ROOT
ATOM      1  C   UNL     1       8.263   0.218  -2.177  1.00  0.00     0.127 C 
ENDROOT
BRANCH   1   2
ATOM      2  C   UNL     1       9.386   0.362  -1.234  1.00  0.00     0.303 C 
ATOM      3  O   UNL     1       9.452  -0.409  -0.239  1.00  0.00    -0.252 OA
BRANCH   2   4
ATOM      4  O   UNL     1      10.388   1.328  -1.406  1.00  0.00    -0.481 OA
ATOM      5  H   UNL     1      11.353   1.051  -1.289  1.00  0.00     0.296 HD
ENDBRANCH   2   4
ENDBRANCH   1   2
BRANCH   1   6
ATOM      6  C   UNL     1       7.121  -0.593  -1.591  1.00  0.00     0.047 C 
BRANCH   6   7
ATOM      7  C   UNL     1       6.347   0.211  -0.609  1.00  0.00    -0.047 A 
ATOM      8  C   UNL     1       5.825   1.447  -0.961  1.00  0.00     0.004 A 
ATOM      9  C   UNL     1       6.115  -0.213   0.687  1.00  0.00     0.004 A 
ATOM     10  C   UNL     1       5.113   2.219  -0.072  1.00  0.00     0.000 A 
ATOM     11  C   UNL     1       5.402   0.562   1.576  1.00  0.00     0.000 A 
ATOM     12  C   UNL     1       4.888   1.788   1.220  1.00  0.00     0.000 A 
ENDBRANCH   6   7
ENDBRANCH   1   6
TORSDOF 4
ENDMDL
MODEL 5
REMARK VINA RESULT:      -6.6      1.902      2.883
REMARK SMILES O=C(O)CCc1ccccc1
REMARK SMILES IDX 4 1 2 2 1 3 3 4 5 6 6 7 7 8 11 9 8 10 10 11 9 12
REMARK H PARENT 3 5
REMARK Flexibility Score: inf
ROOT
ATOM      1  C   UNL     1       8.267  -1.633   1.021  1.00  0.00     0.127 C 
ENDROOT
BRANCH   1   2
ATOM      2  C   UNL     1       8.546  -2.861   0.256  1.00  0.00     0.303 C 
ATOM      3  O   UNL     1       9.171  -3.802   0.815  1.00  0.00    -0.252 OA
BRANCH   2   4
ATOM      4  O   UNL     1       8.140  -3.020  -1.077  1.00  0.00    -0.481 OA
ATOM      5  H   UNL     1       8.682  -3.625  -1.679  1.00  0.00     0.296 HD
ENDBRANCH   2   4
ENDBRANCH   1   2
BRANCH   1   6
ATOM      6  C   UNL     1       6.794  -1.491   1.361  1.00  0.00     0.047 C 
BRANCH   6   7
ATOM      7  C   UNL     1       6.237  -0.233   0.799  1.00  0.00    -0.047 A 
ATOM      8  C   UNL     1       5.446   0.600   1.578  1.00  0.00     0.004 A 
ATOM      9  C   UNL     1       6.460   0.168  -0.505  1.00  0.00     0.004 A 
ATOM     10  C   UNL     1       4.906   1.765   1.084  1.00  0.00     0.000 A 
ATOM     11  C   UNL     1       5.919   1.336  -0.998  1.00  0.00     0.000 A 
ATOM     12  C   UNL     1       5.134   2.156  -0.220  1.00  0.00     0.000 A 
ENDBRANCH   6   7
ENDBRANCH   1   6
TORSDOF 4
ENDMDL
