@<TRIPOS>MOLECULE
/home/cewinharhar/GITHUB/reincatalyze/data/processed/docking_pred/2023-Apr-25-2248_maxeplen10_maxtrainstep1000_exh16_gamma099_lrac3e-4_lrcr1e-3/fbb46063794dc265e75c2cefc4e8ae8bb502d9b1_ligand_2.pdbqt
 12 12 0 0 0
SMALL
GASTEIGER

@<TRIPOS>ATOM
      1  C          4.9370    1.8190    0.7880 C.3     1  UNL1        0.1270
      2  C          4.4100    1.1090    1.9680 C.2     1  UNL1        0.3030
      3  O          5.0930    0.1800    2.4790 O.2     1  UNL1       -0.2520
      4  O          3.1740    1.4320    2.5450 O.3     1  UNL1       -0.4810
      5  H          3.0380    2.3680    2.9030 H       1  UNL1        0.2960
      6  C          6.4340    2.0520    0.8810 C.3     1  UNL1        0.0470
      7  C          7.1560    1.3100   -0.1860 C.2     1  UNL1       -0.0470
      8  C          6.4620    0.5250   -1.0950 C.2     1  UNL1        0.0040
      9  C          8.5310    1.3500   -0.3270 C.2     1  UNL1        0.0040
     10  C          7.1020   -0.1820   -2.0880 C.2     1  UNL1        0.0000
     11  C          9.1700    0.6420   -1.3210 C.2     1  UNL1        0.0000
     12  C          8.4750   -0.1370   -2.2180 C.2     1  UNL1        0.0000
@<TRIPOS>BOND
     1    12    10    2
     2    12    11    1
     3    10     8    1
     4    11     9    2
     5     8     7    2
     6     9     7    1
     7     7     6    1
     8     1     6    1
     9     1     2    1
    10     2     3    2
    11     2     4    1
    12     4     5    1
