@<TRIPOS>MOLECULE
/home/cewinharhar/GITHUB/reincatalyze/data/processed/docking_pred/2023-Apr-25-2248_maxeplen10_maxtrainstep1000_exh16_gamma099_lrac3e-4_lrcr1e-3/fbb46063794dc265e75c2cefc4e8ae8bb502d9b1_ligand_2.pdbqt
 12 12 0 0 0
SMALL
GASTEIGER

@<TRIPOS>ATOM
      1  C          8.0050   -0.3690   -2.2810 C.3     1  UNL1        0.1270
      2  C          8.3030   -1.6830   -2.8800 C.2     1  UNL1        0.3030
      3  O          9.4920   -2.1010   -2.8760 O.2     1  UNL1       -0.2520
      4  O          7.3070   -2.4860   -3.4530 O.3     1  UNL1       -0.4810
      5  H          6.3690   -2.4340   -3.0790 H       1  UNL1        0.2960
      6  C          6.9130   -0.4520   -1.2290 C.3     1  UNL1        0.0470
      7  C          6.7210    0.8590   -0.5570 C.2     1  UNL1       -0.0470
      8  C          5.4760    1.4720   -0.5440 C.2     1  UNL1        0.0040
      9  C          7.7500    1.5350    0.0730 C.2     1  UNL1        0.0040
     10  C          5.2680    2.6910    0.0610 C.2     1  UNL1        0.0000
     11  C          7.5400    2.7560    0.6790 C.2     1  UNL1        0.0000
     12  C          6.3020    3.3580    0.6860 C.2     1  UNL1        0.0000
@<TRIPOS>BOND
     1     4     5    1
     2     4     2    1
     3     2     3    2
     4     2     1    1
     5     1     6    1
     6     6     7    1
     7     7     8    2
     8     7     9    1
     9     8    10    1
    10    10    12    2
    11     9    11    2
    12    11    12    1
