@<TRIPOS>MOLECULE
/home/cewinharhar/GITHUB/reincatalyze/data/processed/docking_pred/2023-Apr-25-2248_maxeplen10_maxtrainstep1000_exh16_gamma099_lrac3e-4_lrcr1e-3/fbb46063794dc265e75c2cefc4e8ae8bb502d9b1_ligand_2.pdbqt
 12 12 0 0 0
SMALL
GASTEIGER

@<TRIPOS>ATOM
      1  C          8.4000   -0.6020   -2.1820 C.3     1  UNL1        0.1270
      2  C          8.4250   -1.8870   -2.9020 C.2     1  UNL1        0.3030
      3  O          7.3330   -2.4340   -3.2160 O.2     1  UNL1       -0.2520
      4  O          9.6230   -2.5250   -3.2540 O.3     1  UNL1       -0.4810
      5  H         10.4920   -2.1550   -2.8920 H       1  UNL1        0.2960
      6  C          7.0080    0.0020   -2.1330 C.3     1  UNL1        0.0470
      7  C          6.4880    0.0300   -0.7410 C.2     1  UNL1       -0.0470
      8  C          5.8690    1.1650   -0.2390 C.2     1  UNL1        0.0040
      9  C          6.5970   -1.0470    0.1200 C.2     1  UNL1        0.0040
     10  C          5.3860    1.2250    1.0480 C.2     1  UNL1        0.0000
     11  C          6.1130   -0.9850    1.4090 C.2     1  UNL1        0.0000
     12  C          5.5010    0.1450    1.9000 C.2     1  UNL1        0.0000
@<TRIPOS>BOND
     1     4     2    1
     2     4     5    1
     3     3     2    2
     4     2     1    1
     5     1     6    1
     6     6     7    1
     7     7     8    2
     8     7     9    1
     9     8    10    1
    10     9    11    2
    11    10    12    2
    12    11    12    1
