@<TRIPOS>MOLECULE
/home/cewinharhar/GITHUB/reincatalyze/data/processed/docking_pred/2023-Apr-25-2248_maxeplen10_maxtrainstep1000_exh16_gamma099_lrac3e-4_lrcr1e-3/fbb46063794dc265e75c2cefc4e8ae8bb502d9b1_ligand_2.pdbqt
 12 12 0 0 0
SMALL
GASTEIGER

@<TRIPOS>ATOM
      1  C          8.0790   -1.2350   -0.1700 C.3     1  UNL1        0.1270
      2  C          7.8940   -2.3680    0.7540 C.2     1  UNL1        0.3030
      3  O          8.7740   -3.2690    0.8030 O.2     1  UNL1       -0.2520
      4  O          6.7690   -2.4790    1.5840 O.3     1  UNL1       -0.4810
      5  H          6.8660   -2.9600    2.4680 H       1  UNL1        0.2960
      6  C          6.7580   -0.6510   -0.6360 C.3     1  UNL1        0.0470
      7  C          6.6150    0.7610   -0.1960 C.2     1  UNL1       -0.0470
      8  C          7.6580    1.4110    0.4480 C.2     1  UNL1        0.0040
      9  C          5.4570    1.4920   -0.3900 C.2     1  UNL1        0.0040
     10  C          7.5530    2.7150    0.8770 C.2     1  UNL1        0.0000
     11  C          5.3530    2.7980    0.0400 C.2     1  UNL1        0.0000
     12  C          6.3920    3.4350    0.6800 C.2     1  UNL1        0.0000
@<TRIPOS>BOND
     1     6     7    1
     2     6     1    1
     3     9     7    2
     4     9    11    1
     5     7     8    1
     6     1     2    1
     7    11    12    2
     8     8    10    2
     9    12    10    1
    10     2     3    2
    11     2     4    1
    12     4     5    1
