@<TRIPOS>MOLECULE
/home/cewinharhar/GITHUB/reincatalyze/data/processed/docking_pred/2023-Apr-25-2248_maxeplen10_maxtrainstep1000_exh16_gamma099_lrac3e-4_lrcr1e-3/fbb46063794dc265e75c2cefc4e8ae8bb502d9b1_ligand_2.pdbqt
 12 12 0 0 0
SMALL
GASTEIGER

@<TRIPOS>ATOM
      1  C          8.3800   -0.6150   -2.1770 C.3     1  UNL1        0.1270
      2  C          8.3780   -1.8930   -2.9100 C.2     1  UNL1        0.3030
      3  O          7.2760   -2.4010   -3.2520 O.2     1  UNL1       -0.2520
      4  O          9.5630   -2.5650   -3.2440 O.3     1  UNL1       -0.4810
      5  H         10.4380   -2.0630   -3.1800 H       1  UNL1        0.2960
      6  C          7.0090    0.0360   -2.1540 C.3     1  UNL1        0.0470
      7  C          6.4750    0.1060   -0.7690 C.2     1  UNL1       -0.0470
      8  C          6.6240   -0.9640    0.1020 C.2     1  UNL1        0.0040
      9  C          5.8050    1.2120   -0.2800 C.2     1  UNL1        0.0040
     10  C          6.1320   -0.9350    1.3860 C.2     1  UNL1        0.0000
     11  C          5.3130    1.2410    1.0070 C.2     1  UNL1        0.0000
     12  C          5.4630    0.1740    1.8650 C.2     1  UNL1        0.0000
@<TRIPOS>BOND
     1     3     2    2
     2     4     5    1
     3     4     2    1
     4     2     1    1
     5     1     6    1
     6     6     7    1
     7     7     9    2
     8     7     8    1
     9     9    11    1
    10     8    10    2
    11    11    12    2
    12    10    12    1
