@<TRIPOS>MOLECULE
/home/cewinharhar/GITHUB/reincatalyze/data/processed/docking_pred/2023-Apr-25-2248_maxeplen10_maxtrainstep1000_exh16_gamma099_lrac3e-4_lrcr1e-3/fd0126b23dad862f417327e64da043fff24e40de_ligand_2.pdbqt
 12 12 0 0 0
SMALL
GASTEIGER

@<TRIPOS>ATOM
      1  C          7.3350   -1.2310   -2.1390 C.3     1  UNL1        0.1270
      2  C          8.7580   -1.3400   -2.5070 C.2     1  UNL1        0.3030
      3  O          9.5620   -0.4530   -2.1120 O.2     1  UNL1       -0.2520
      4  O          9.2510   -2.4000   -3.2810 O.3     1  UNL1       -0.4810
      5  H         10.1880   -2.7360   -3.1000 H       1  UNL1        0.2960
      6  C          7.1130   -1.4010   -0.6470 C.3     1  UNL1        0.0470
      7  C          6.3590   -0.2500   -0.0870 C.2     1  UNL1       -0.0470
      8  C          6.1090    0.8760   -0.8580 C.2     1  UNL1        0.0040
      9  C          5.8810   -0.2280    1.2110 C.2     1  UNL1        0.0040
     10  C          5.4230    1.9620   -0.3650 C.2     1  UNL1        0.0000
     11  C          5.1940    0.8600    1.7030 C.2     1  UNL1        0.0000
     12  C          4.9510    1.9740    0.9320 C.2     1  UNL1        0.0000
@<TRIPOS>BOND
     1     4     5    1
     2     4     2    1
     3     2     1    1
     4     2     3    2
     5     1     6    1
     6     8    10    1
     7     8     7    2
     8     6     7    1
     9    10    12    2
    10     7     9    1
    11    12    11    1
    12     9    11    2
