MODEL 1
REMARK VINA RESULT:      -7.3      0.000      0.000
REMARK SMILES O=C(O)CCc1ccccc1
REMARK SMILES IDX 4 1 2 2 1 3 3 4 5 6 6 7 7 8 11 9 8 10 10 11 9 12
REMARK H PARENT 3 5
REMARK Flexibility Score: inf
ROOT
ATOM      1  C   UNL     1       8.406  -0.667  -2.111  1.00  0.00     0.127 C 
ENDROOT
BRANCH   1   2
ATOM      2  C   UNL     1       8.401  -1.921  -2.885  1.00  0.00     0.303 C 
ATOM      3  O   UNL     1       7.297  -2.415  -3.242  1.00  0.00    -0.252 OA
BRANCH   2   4
ATOM      4  O   UNL     1       9.584  -2.586  -3.240  1.00  0.00    -0.481 OA
ATOM      5  H   UNL     1      10.055  -2.312  -4.091  1.00  0.00     0.296 HD
ENDBRANCH   2   4
ENDBRANCH   1   2
BRANCH   1   6
ATOM      6  C   UNL     1       7.059   0.033  -2.145  1.00  0.00     0.047 C 
BRANCH   6   7
ATOM      7  C   UNL     1       6.487   0.153  -0.778  1.00  0.00    -0.047 A 
ATOM      8  C   UNL     1       6.623  -0.879   0.139  1.00  0.00     0.004 A 
ATOM      9  C   UNL     1       5.793   1.271  -0.352  1.00  0.00     0.004 A 
ATOM     10  C   UNL     1       6.097  -0.803   1.408  1.00  0.00     0.000 A 
ATOM     11  C   UNL     1       5.266   1.346   0.919  1.00  0.00     0.000 A 
ATOM     12  C   UNL     1       5.404   0.317   1.823  1.00  0.00     0.000 A 
ENDBRANCH   6   7
ENDBRANCH   1   6
TORSDOF 4
ENDMDL
MODEL 2
REMARK VINA RESULT:      -7.2      0.081      1.422
REMARK SMILES O=C(O)CCc1ccccc1
REMARK SMILES IDX 4 1 2 2 1 3 3 4 5 6 6 7 7 8 11 9 8 10 10 11 9 12
REMARK H PARENT 3 5
REMARK Flexibility Score: inf
ROOT
ATOM      1  C   UNL     1       8.407  -0.613  -2.164  1.00  0.00     0.127 C 
ENDROOT
BRANCH   1   2
ATOM      2  C   UNL     1       8.418  -1.895  -2.892  1.00  0.00     0.303 C 
ATOM      3  O   UNL     1       7.320  -2.427  -3.212  1.00  0.00    -0.252 OA
BRANCH   2   4
ATOM      4  O   UNL     1       9.609  -2.546  -3.243  1.00  0.00    -0.481 OA
ATOM      5  H   UNL     1       9.743  -3.503  -2.947  1.00  0.00     0.296 HD
ENDBRANCH   2   4
ENDBRANCH   1   2
BRANCH   1   6
ATOM      6  C   UNL     1       7.027   0.021  -2.140  1.00  0.00     0.047 C 
BRANCH   6   7
ATOM      7  C   UNL     1       6.492   0.078  -0.755  1.00  0.00    -0.047 A 
ATOM      8  C   UNL     1       5.859   1.222  -0.288  1.00  0.00     0.004 A 
ATOM      9  C   UNL     1       6.599  -0.976   0.133  1.00  0.00     0.004 A 
ATOM     10  C   UNL     1       5.362   1.310   0.992  1.00  0.00     0.000 A 
ATOM     11  C   UNL     1       6.101  -0.886   1.415  1.00  0.00     0.000 A 
ATOM     12  C   UNL     1       5.475   0.252   1.872  1.00  0.00     0.000 A 
ENDBRANCH   6   7
ENDBRANCH   1   6
TORSDOF 4
ENDMDL
MODEL 3
REMARK VINA RESULT:      -6.9      1.048      1.962
REMARK SMILES O=C(O)CCc1ccccc1
REMARK SMILES IDX 4 1 2 2 1 3 3 4 5 6 6 7 7 8 11 9 8 10 10 11 9 12
REMARK H PARENT 3 5
REMARK Flexibility Score: inf
ROOT
ATOM      1  C   UNL     1       7.335  -1.231  -2.139  1.00  0.00     0.127 C 
ENDROOT
BRANCH   1   2
ATOM      2  C   UNL     1       8.758  -1.340  -2.507  1.00  0.00     0.303 C 
ATOM      3  O   UNL     1       9.562  -0.453  -2.112  1.00  0.00    -0.252 OA
BRANCH   2   4
ATOM      4  O   UNL     1       9.251  -2.400  -3.281  1.00  0.00    -0.481 OA
ATOM      5  H   UNL     1      10.188  -2.736  -3.100  1.00  0.00     0.296 HD
ENDBRANCH   2   4
ENDBRANCH   1   2
BRANCH   1   6
ATOM      6  C   UNL     1       7.113  -1.401  -0.647  1.00  0.00     0.047 C 
BRANCH   6   7
ATOM      7  C   UNL     1       6.359  -0.250  -0.087  1.00  0.00    -0.047 A 
ATOM      8  C   UNL     1       6.109   0.876  -0.858  1.00  0.00     0.004 A 
ATOM      9  C   UNL     1       5.881  -0.228   1.211  1.00  0.00     0.004 A 
ATOM     10  C   UNL     1       5.423   1.962  -0.365  1.00  0.00     0.000 A 
ATOM     11  C   UNL     1       5.194   0.860   1.703  1.00  0.00     0.000 A 
ATOM     12  C   UNL     1       4.951   1.974   0.932  1.00  0.00     0.000 A 
ENDBRANCH   6   7
ENDBRANCH   1   6
TORSDOF 4
ENDMDL
MODEL 4
REMARK VINA RESULT:      -6.8      3.316      5.162
REMARK SMILES O=C(O)CCc1ccccc1
REMARK SMILES IDX 4 1 2 2 1 3 3 4 5 6 6 7 7 8 11 9 8 10 10 11 9 12
REMARK H PARENT 3 5
REMARK Flexibility Score: inf
ROOT
ATOM      1  C   UNL     1       5.019   1.753   0.682  1.00  0.00     0.127 C 
ENDROOT
BRANCH   1   2
ATOM      2  C   UNL     1       4.495   1.121   1.905  1.00  0.00     0.303 C 
ATOM      3  O   UNL     1       5.187   0.240   2.484  1.00  0.00    -0.252 OA
BRANCH   2   4
ATOM      4  O   UNL     1       3.250   1.467   2.451  1.00  0.00    -0.481 OA
ATOM      5  H   UNL     1       2.513   0.775   2.449  1.00  0.00     0.296 HD
ENDBRANCH   2   4
ENDBRANCH   1   2
BRANCH   1   6
ATOM      6  C   UNL     1       6.532   1.878   0.703  1.00  0.00     0.047 C 
BRANCH   6   7
ATOM      7  C   UNL     1       7.150   1.043  -0.360  1.00  0.00    -0.047 A 
ATOM      8  C   UNL     1       8.487   1.203  -0.697  1.00  0.00     0.004 A 
ATOM      9  C   UNL     1       6.444   0.087  -1.066  1.00  0.00     0.004 A 
ATOM     10  C   UNL     1       9.086   0.453  -1.683  1.00  0.00     0.000 A 
ATOM     11  C   UNL     1       7.046  -0.663  -2.054  1.00  0.00     0.000 A 
ATOM     12  C   UNL     1       8.372  -0.498  -2.383  1.00  0.00     0.000 A 
ENDBRANCH   6   7
ENDBRANCH   1   6
TORSDOF 4
ENDMDL
MODEL 5
REMARK VINA RESULT:      -6.6      1.942      2.215
REMARK SMILES O=C(O)CCc1ccccc1
REMARK SMILES IDX 4 1 2 2 1 3 3 4 5 6 6 7 7 8 11 9 8 10 10 11 9 12
REMARK H PARENT 3 5
REMARK Flexibility Score: inf
ROOT
ATOM      1  C   UNL     1       8.225   0.233  -2.094  1.00  0.00     0.127 C 
ENDROOT
BRANCH   1   2
ATOM      2  C   UNL     1       9.390   0.369  -1.202  1.00  0.00     0.303 C 
ATOM      3  O   UNL     1       9.483  -0.387  -0.197  1.00  0.00    -0.252 OA
BRANCH   2   4
ATOM      4  O   UNL     1      10.402   1.311  -1.432  1.00  0.00    -0.481 OA
ATOM      5  H   UNL     1      10.567   1.622  -2.380  1.00  0.00     0.296 HD
ENDBRANCH   2   4
ENDBRANCH   1   2
BRANCH   1   6
ATOM      6  C   UNL     1       7.133  -0.628  -1.485  1.00  0.00     0.047 C 
BRANCH   6   7
ATOM      7  C   UNL     1       6.352   0.136  -0.478  1.00  0.00    -0.047 A 
ATOM      8  C   UNL     1       6.136  -0.382   0.791  1.00  0.00     0.004 A 
ATOM      9  C   UNL     1       5.799   1.375  -0.742  1.00  0.00     0.004 A 
ATOM     10  C   UNL     1       5.409   0.296   1.743  1.00  0.00     0.000 A 
ATOM     11  C   UNL     1       5.071   2.053   0.212  1.00  0.00     0.000 A 
ATOM     12  C   UNL     1       4.859   1.532   1.468  1.00  0.00     0.000 A 
ENDBRANCH   6   7
ENDBRANCH   1   6
TORSDOF 4
ENDMDL
