@<TRIPOS>MOLECULE
/home/cewinharhar/GITHUB/reincatalyze/data/processed/docking_pred/2023-Apr-25-2248_maxeplen10_maxtrainstep1000_exh16_gamma099_lrac3e-4_lrcr1e-3/fd0126b23dad862f417327e64da043fff24e40de_ligand_2.pdbqt
 12 12 0 0 0
SMALL
GASTEIGER

@<TRIPOS>ATOM
      1  C          5.0190    1.7530    0.6820 C.3     1  UNL1        0.1270
      2  C          4.4950    1.1210    1.9050 C.2     1  UNL1        0.3030
      3  O          5.1870    0.2400    2.4840 O.2     1  UNL1       -0.2520
      4  O          3.2500    1.4670    2.4510 O.3     1  UNL1       -0.4810
      5  H          2.5130    0.7750    2.4490 H       1  UNL1        0.2960
      6  C          6.5320    1.8780    0.7030 C.3     1  UNL1        0.0470
      7  C          7.1500    1.0430   -0.3600 C.2     1  UNL1       -0.0470
      8  C          8.4870    1.2030   -0.6970 C.2     1  UNL1        0.0040
      9  C          6.4440    0.0870   -1.0660 C.2     1  UNL1        0.0040
     10  C          9.0860    0.4530   -1.6830 C.2     1  UNL1        0.0000
     11  C          7.0460   -0.6630   -2.0540 C.2     1  UNL1        0.0000
     12  C          8.3720   -0.4980   -2.3830 C.2     1  UNL1        0.0000
@<TRIPOS>BOND
     1    12    11    2
     2    12    10    1
     3    11     9    1
     4    10     8    2
     5     9     7    2
     6     8     7    1
     7     7     6    1
     8     1     6    1
     9     1     2    1
    10     2     4    1
    11     2     3    2
    12     5     4    1
