@<TRIPOS>MOLECULE
/home/cewinharhar/GITHUB/reincatalyze/data/processed/docking_pred/2023-Apr-25-2248_maxeplen10_maxtrainstep1000_exh16_gamma099_lrac3e-4_lrcr1e-3/fd0126b23dad862f417327e64da043fff24e40de_ligand_2.pdbqt
 12 12 0 0 0
SMALL
GASTEIGER

@<TRIPOS>ATOM
      1  C          8.4060   -0.6670   -2.1110 C.3     1  UNL1        0.1270
      2  C          8.4010   -1.9210   -2.8850 C.2     1  UNL1        0.3030
      3  O          7.2970   -2.4150   -3.2420 O.2     1  UNL1       -0.2520
      4  O          9.5840   -2.5860   -3.2400 O.3     1  UNL1       -0.4810
      5  H         10.0550   -2.3120   -4.0910 H       1  UNL1        0.2960
      6  C          7.0590    0.0330   -2.1450 C.3     1  UNL1        0.0470
      7  C          6.4870    0.1530   -0.7780 C.2     1  UNL1       -0.0470
      8  C          6.6230   -0.8790    0.1390 C.2     1  UNL1        0.0040
      9  C          5.7930    1.2710   -0.3520 C.2     1  UNL1        0.0040
     10  C          6.0970   -0.8030    1.4080 C.2     1  UNL1        0.0000
     11  C          5.2660    1.3460    0.9190 C.2     1  UNL1        0.0000
     12  C          5.4040    0.3170    1.8230 C.2     1  UNL1        0.0000
@<TRIPOS>BOND
     1     5     4    1
     2     3     2    2
     3     4     2    1
     4     2     1    1
     5     6     1    1
     6     6     7    1
     7     7     9    2
     8     7     8    1
     9     9    11    1
    10     8    10    2
    11    11    12    2
    12    10    12    1
