@<TRIPOS>MOLECULE
/home/cewinharhar/GITHUB/reincatalyze/data/processed/docking_pred/2023-Apr-25-2248_maxeplen10_maxtrainstep1000_exh16_gamma099_lrac3e-4_lrcr1e-3/fd0126b23dad862f417327e64da043fff24e40de_ligand_2.pdbqt
 12 12 0 0 0
SMALL
GASTEIGER

@<TRIPOS>ATOM
      1  C          8.2250    0.2330   -2.0940 C.3     1  UNL1        0.1270
      2  C          9.3900    0.3690   -1.2020 C.2     1  UNL1        0.3030
      3  O          9.4830   -0.3870   -0.1970 O.2     1  UNL1       -0.2520
      4  O         10.4020    1.3110   -1.4320 O.3     1  UNL1       -0.4810
      5  H         10.5670    1.6220   -2.3800 H       1  UNL1        0.2960
      6  C          7.1330   -0.6280   -1.4850 C.3     1  UNL1        0.0470
      7  C          6.3520    0.1360   -0.4780 C.2     1  UNL1       -0.0470
      8  C          6.1360   -0.3820    0.7910 C.2     1  UNL1        0.0040
      9  C          5.7990    1.3750   -0.7420 C.2     1  UNL1        0.0040
     10  C          5.4090    0.2960    1.7430 C.2     1  UNL1        0.0000
     11  C          5.0710    2.0530    0.2120 C.2     1  UNL1        0.0000
     12  C          4.8590    1.5320    1.4680 C.2     1  UNL1        0.0000
@<TRIPOS>BOND
     1     5     4    1
     2     1     6    1
     3     1     2    1
     4     6     7    1
     5     4     2    1
     6     2     3    2
     7     9     7    2
     8     9    11    1
     9     7     8    1
    10    11    12    2
    11     8    10    2
    12    12    10    1
