@<TRIPOS>MOLECULE
/home/cewinharhar/GITHUB/reincatalyze/data/processed/docking_pred/2023-Apr-25-2248_maxeplen10_maxtrainstep1000_exh16_gamma099_lrac3e-4_lrcr1e-3/fd751eb3811fc03d22e30b1993ea0072812fb772_ligand_2.pdbqt
 12 12 0 0 0
SMALL
GASTEIGER

@<TRIPOS>ATOM
      1  C          5.0280    1.7820    0.7540 C.3     1  UNL1        0.1270
      2  C          4.4710    1.1050    1.9390 C.2     1  UNL1        0.3030
      3  O          5.1350    0.1820    2.4850 O.2     1  UNL1       -0.2520
      4  O          3.2260    1.4520    2.4830 O.3     1  UNL1       -0.4810
      5  H          2.4210    1.4760    1.8710 H       1  UNL1        0.2960
      6  C          6.5450    1.8420    0.7870 C.3     1  UNL1        0.0470
      7  C          7.1340    1.0410   -0.3170 C.2     1  UNL1       -0.0470
      8  C          8.4620    1.2090   -0.6830 C.2     1  UNL1        0.0040
      9  C          6.4080    0.1090   -1.0350 C.2     1  UNL1        0.0040
     10  C          9.0340    0.4900   -1.7070 C.2     1  UNL1        0.0000
     11  C          6.9830   -0.6110   -2.0610 C.2     1  UNL1        0.0000
     12  C          8.3010   -0.4370   -2.4190 C.2     1  UNL1        0.0000
@<TRIPOS>BOND
     1    12    11    2
     2    12    10    1
     3    11     9    1
     4    10     8    2
     5     9     7    2
     6     8     7    1
     7     7     6    1
     8     1     6    1
     9     1     2    1
    10     5     4    1
    11     2     4    1
    12     2     3    2
