@<TRIPOS>MOLECULE
/home/cewinharhar/GITHUB/reincatalyze/data/processed/docking_pred/2023-Apr-25-2248_maxeplen10_maxtrainstep1000_exh16_gamma099_lrac3e-4_lrcr1e-3/fd751eb3811fc03d22e30b1993ea0072812fb772_ligand_2.pdbqt
 12 12 0 0 0
SMALL
GASTEIGER

@<TRIPOS>ATOM
      1  C          8.4030   -0.5860   -2.1960 C.3     1  UNL1        0.1270
      2  C          8.4500   -1.8730   -2.9110 C.2     1  UNL1        0.3030
      3  O          9.5630   -2.4460   -3.0680 O.2     1  UNL1       -0.2520
      4  O          7.2980   -2.4880   -3.4230 O.3     1  UNL1       -0.4810
      5  H          7.3730   -3.4270   -3.7880 H       1  UNL1        0.2960
      6  C          7.0040    0.0050   -2.1700 C.3     1  UNL1        0.0470
      7  C          6.4900    0.0940   -0.7780 C.2     1  UNL1       -0.0470
      8  C          6.6120   -0.9810    0.0910 C.2     1  UNL1        0.0040
      9  C          5.8640    1.2230   -0.2820 C.2     1  UNL1        0.0040
     10  C          6.1360   -0.9340    1.3820 C.2     1  UNL1        0.0000
     11  C          5.3890    1.2680    1.0110 C.2     1  UNL1        0.0000
     12  C          5.5120    0.1980    1.8670 C.2     1  UNL1        0.0000
@<TRIPOS>BOND
     1     5     4    1
     2     4     2    1
     3     3     2    2
     4     2     1    1
     5     1     6    1
     6     6     7    1
     7     7     9    2
     8     7     8    1
     9     9    11    1
    10     8    10    2
    11    11    12    2
    12    10    12    1
