@<TRIPOS>MOLECULE
/home/cewinharhar/GITHUB/reincatalyze/data/processed/docking_pred/2023-Apr-25-2248_maxeplen10_maxtrainstep1000_exh16_gamma099_lrac3e-4_lrcr1e-3/fd751eb3811fc03d22e30b1993ea0072812fb772_ligand_2.pdbqt
 12 12 0 0 0
SMALL
GASTEIGER

@<TRIPOS>ATOM
      1  C          8.4060   -0.6550   -2.1330 C.3     1  UNL1        0.1270
      2  C          8.4010   -1.9190   -2.8910 C.2     1  UNL1        0.3030
      3  O          7.2970   -2.4170   -3.2430 O.2     1  UNL1       -0.2520
      4  O          9.5840   -2.5880   -3.2380 O.3     1  UNL1       -0.4810
      5  H          9.7770   -2.7520   -4.2160 H       1  UNL1        0.2960
      6  C          7.0440    0.0160   -2.1270 C.3     1  UNL1        0.0470
      7  C          6.4880    0.0790   -0.7500 C.2     1  UNL1       -0.0470
      8  C          5.8100    1.2080   -0.3120 C.2     1  UNL1        0.0040
      9  C          6.6190   -0.9550    0.1580 C.2     1  UNL1        0.0040
     10  C          5.2930    1.3010    0.9600 C.2     1  UNL1        0.0000
     11  C          6.1000   -0.8600    1.4320 C.2     1  UNL1        0.0000
     12  C          5.4300    0.2640    1.8600 C.2     1  UNL1        0.0000
@<TRIPOS>BOND
     1     5     4    1
     2     3     2    2
     3     4     2    1
     4     2     1    1
     5     1     6    1
     6     6     7    1
     7     7     8    2
     8     7     9    1
     9     8    10    1
    10     9    11    2
    11    10    12    2
    12    11    12    1
