@<TRIPOS>MOLECULE
/home/cewinharhar/GITHUB/reincatalyze/data/processed/docking_pred/2023-Apr-25-2248_maxeplen10_maxtrainstep1000_exh16_gamma099_lrac3e-4_lrcr1e-3/fd751eb3811fc03d22e30b1993ea0072812fb772_ligand_2.pdbqt
 12 12 0 0 0
SMALL
GASTEIGER

@<TRIPOS>ATOM
      1  C          8.2330   -0.9790   -1.8320 C.3     1  UNL1        0.1270
      2  C          8.3710   -2.0420   -2.8430 C.2     1  UNL1        0.3030
      3  O          9.5160   -2.5130   -3.0840 O.2     1  UNL1       -0.2520
      4  O          7.2710   -2.5510   -3.5480 O.3     1  UNL1       -0.4810
      5  H          6.5920   -3.1080   -3.0470 H       1  UNL1        0.2960
      6  C          7.4630   -1.4460   -0.6100 C.3     1  UNL1        0.0470
      7  C          6.6010   -0.3590   -0.0760 C.2     1  UNL1       -0.0470
      8  C          6.2760    0.7370   -0.8630 C.2     1  UNL1        0.0040
      9  C          6.0920   -0.3700    1.2090 C.2     1  UNL1        0.0040
     10  C          5.4890    1.7640   -0.3950 C.2     1  UNL1        0.0000
     11  C          5.3030    0.6600    1.6760 C.2     1  UNL1        0.0000
     12  C          4.9860    1.7440    0.8900 C.2     1  UNL1        0.0000
@<TRIPOS>BOND
     1     4     5    1
     2     4     2    1
     3     3     2    2
     4     2     1    1
     5     1     6    1
     6     8    10    1
     7     8     7    2
     8     6     7    1
     9    10    12    2
    10     7     9    1
    11    12    11    1
    12     9    11    2
