MODEL 1
REMARK VINA RESULT:      -7.3      0.000      0.000
REMARK SMILES O=C(O)CCc1ccccc1
REMARK SMILES IDX 4 1 2 2 1 3 3 4 5 6 6 7 7 8 11 9 8 10 10 11 9 12
REMARK H PARENT 3 5
REMARK Flexibility Score: inf
ROOT
ATOM      1  C   UNL     1       8.403  -0.586  -2.196  1.00  0.00     0.127 C 
ENDROOT
BRANCH   1   2
ATOM      2  C   UNL     1       8.450  -1.873  -2.911  1.00  0.00     0.303 C 
ATOM      3  O   UNL     1       9.563  -2.446  -3.068  1.00  0.00    -0.252 OA
BRANCH   2   4
ATOM      4  O   UNL     1       7.298  -2.488  -3.423  1.00  0.00    -0.481 OA
ATOM      5  H   UNL     1       7.373  -3.427  -3.788  1.00  0.00     0.296 HD
ENDBRANCH   2   4
ENDBRANCH   1   2
BRANCH   1   6
ATOM      6  C   UNL     1       7.004   0.005  -2.170  1.00  0.00     0.047 C 
BRANCH   6   7
ATOM      7  C   UNL     1       6.490   0.094  -0.778  1.00  0.00    -0.047 A 
ATOM      8  C   UNL     1       6.612  -0.981   0.091  1.00  0.00     0.004 A 
ATOM      9  C   UNL     1       5.864   1.223  -0.282  1.00  0.00     0.004 A 
ATOM     10  C   UNL     1       6.136  -0.934   1.382  1.00  0.00     0.000 A 
ATOM     11  C   UNL     1       5.389   1.268   1.011  1.00  0.00     0.000 A 
ATOM     12  C   UNL     1       5.512   0.198   1.867  1.00  0.00     0.000 A 
ENDBRANCH   6   7
ENDBRANCH   1   6
TORSDOF 4
ENDMDL
MODEL 2
REMARK VINA RESULT:      -7.3      0.116      1.723
REMARK SMILES O=C(O)CCc1ccccc1
REMARK SMILES IDX 4 1 2 2 1 3 3 4 5 6 6 7 7 8 11 9 8 10 10 11 9 12
REMARK H PARENT 3 5
REMARK Flexibility Score: inf
ROOT
ATOM      1  C   UNL     1       8.406  -0.655  -2.133  1.00  0.00     0.127 C 
ENDROOT
BRANCH   1   2
ATOM      2  C   UNL     1       8.401  -1.919  -2.891  1.00  0.00     0.303 C 
ATOM      3  O   UNL     1       7.297  -2.417  -3.243  1.00  0.00    -0.252 OA
BRANCH   2   4
ATOM      4  O   UNL     1       9.584  -2.588  -3.238  1.00  0.00    -0.481 OA
ATOM      5  H   UNL     1       9.777  -2.752  -4.216  1.00  0.00     0.296 HD
ENDBRANCH   2   4
ENDBRANCH   1   2
BRANCH   1   6
ATOM      6  C   UNL     1       7.044   0.016  -2.127  1.00  0.00     0.047 C 
BRANCH   6   7
ATOM      7  C   UNL     1       6.488   0.079  -0.750  1.00  0.00    -0.047 A 
ATOM      8  C   UNL     1       5.810   1.208  -0.312  1.00  0.00     0.004 A 
ATOM      9  C   UNL     1       6.619  -0.955   0.158  1.00  0.00     0.004 A 
ATOM     10  C   UNL     1       5.293   1.301   0.960  1.00  0.00     0.000 A 
ATOM     11  C   UNL     1       6.100  -0.860   1.432  1.00  0.00     0.000 A 
ATOM     12  C   UNL     1       5.430   0.264   1.860  1.00  0.00     0.000 A 
ENDBRANCH   6   7
ENDBRANCH   1   6
TORSDOF 4
ENDMDL
MODEL 3
REMARK VINA RESULT:      -7.2      0.697      1.649
REMARK SMILES O=C(O)CCc1ccccc1
REMARK SMILES IDX 4 1 2 2 1 3 3 4 5 6 6 7 7 8 11 9 8 10 10 11 9 12
REMARK H PARENT 3 5
REMARK Flexibility Score: inf
ROOT
ATOM      1  C   UNL     1       8.233  -0.979  -1.832  1.00  0.00     0.127 C 
ENDROOT
BRANCH   1   2
ATOM      2  C   UNL     1       8.371  -2.042  -2.843  1.00  0.00     0.303 C 
ATOM      3  O   UNL     1       9.516  -2.513  -3.084  1.00  0.00    -0.252 OA
BRANCH   2   4
ATOM      4  O   UNL     1       7.271  -2.551  -3.548  1.00  0.00    -0.481 OA
ATOM      5  H   UNL     1       6.592  -3.108  -3.047  1.00  0.00     0.296 HD
ENDBRANCH   2   4
ENDBRANCH   1   2
BRANCH   1   6
ATOM      6  C   UNL     1       7.463  -1.446  -0.610  1.00  0.00     0.047 C 
BRANCH   6   7
ATOM      7  C   UNL     1       6.601  -0.359  -0.076  1.00  0.00    -0.047 A 
ATOM      8  C   UNL     1       6.276   0.737  -0.863  1.00  0.00     0.004 A 
ATOM      9  C   UNL     1       6.092  -0.370   1.209  1.00  0.00     0.004 A 
ATOM     10  C   UNL     1       5.489   1.764  -0.395  1.00  0.00     0.000 A 
ATOM     11  C   UNL     1       5.303   0.660   1.676  1.00  0.00     0.000 A 
ATOM     12  C   UNL     1       4.986   1.744   0.890  1.00  0.00     0.000 A 
ENDBRANCH   6   7
ENDBRANCH   1   6
TORSDOF 4
ENDMDL
MODEL 4
REMARK VINA RESULT:      -7.2      0.697      1.234
REMARK SMILES O=C(O)CCc1ccccc1
REMARK SMILES IDX 4 1 2 2 1 3 3 4 5 6 6 7 7 8 11 9 8 10 10 11 9 12
REMARK H PARENT 3 5
REMARK Flexibility Score: inf
ROOT
ATOM      1  C   UNL     1       8.189  -0.971  -1.871  1.00  0.00     0.127 C 
ENDROOT
BRANCH   1   2
ATOM      2  C   UNL     1       8.331  -2.040  -2.876  1.00  0.00     0.303 C 
ATOM      3  O   UNL     1       9.474  -2.519  -3.103  1.00  0.00    -0.252 OA
BRANCH   2   4
ATOM      4  O   UNL     1       7.234  -2.545  -3.589  1.00  0.00    -0.481 OA
ATOM      5  H   UNL     1       7.266  -2.530  -4.600  1.00  0.00     0.296 HD
ENDBRANCH   2   4
ENDBRANCH   1   2
BRANCH   1   6
ATOM      6  C   UNL     1       7.410  -1.430  -0.651  1.00  0.00     0.047 C 
BRANCH   6   7
ATOM      7  C   UNL     1       6.573  -0.328  -0.109  1.00  0.00    -0.047 A 
ATOM      8  C   UNL     1       6.087  -0.381   1.190  1.00  0.00     0.004 A 
ATOM      9  C   UNL     1       6.228   0.786  -0.853  1.00  0.00     0.004 A 
ATOM     10  C   UNL     1       5.301   0.617   1.718  1.00  0.00     0.000 A 
ATOM     11  C   UNL     1       5.440   1.785  -0.323  1.00  0.00     0.000 A 
ATOM     12  C   UNL     1       4.961   1.724   0.966  1.00  0.00     0.000 A 
ENDBRANCH   6   7
ENDBRANCH   1   6
TORSDOF 4
ENDMDL
MODEL 5
REMARK VINA RESULT:      -6.8      3.392      5.090
REMARK SMILES O=C(O)CCc1ccccc1
REMARK SMILES IDX 4 1 2 2 1 3 3 4 5 6 6 7 7 8 11 9 8 10 10 11 9 12
REMARK H PARENT 3 5
REMARK Flexibility Score: inf
ROOT
ATOM      1  C   UNL     1       5.028   1.782   0.754  1.00  0.00     0.127 C 
ENDROOT
BRANCH   1   2
ATOM      2  C   UNL     1       4.471   1.105   1.939  1.00  0.00     0.303 C 
ATOM      3  O   UNL     1       5.135   0.182   2.485  1.00  0.00    -0.252 OA
BRANCH   2   4
ATOM      4  O   UNL     1       3.226   1.452   2.483  1.00  0.00    -0.481 OA
ATOM      5  H   UNL     1       2.421   1.476   1.871  1.00  0.00     0.296 HD
ENDBRANCH   2   4
ENDBRANCH   1   2
BRANCH   1   6
ATOM      6  C   UNL     1       6.545   1.842   0.787  1.00  0.00     0.047 C 
BRANCH   6   7
ATOM      7  C   UNL     1       7.134   1.041  -0.317  1.00  0.00    -0.047 A 
ATOM      8  C   UNL     1       8.462   1.209  -0.683  1.00  0.00     0.004 A 
ATOM      9  C   UNL     1       6.408   0.109  -1.035  1.00  0.00     0.004 A 
ATOM     10  C   UNL     1       9.034   0.490  -1.707  1.00  0.00     0.000 A 
ATOM     11  C   UNL     1       6.983  -0.611  -2.061  1.00  0.00     0.000 A 
ATOM     12  C   UNL     1       8.301  -0.437  -2.419  1.00  0.00     0.000 A 
ENDBRANCH   6   7
ENDBRANCH   1   6
TORSDOF 4
ENDMDL
