MODEL 1
REMARK VINA RESULT:      -7.3      0.000      0.000
REMARK SMILES O=C(O)CCc1ccccc1
REMARK SMILES IDX 4 1 2 2 1 3 3 4 5 6 6 7 7 8 11 9 8 10 10 11 9 12
REMARK H PARENT 3 5
REMARK Flexibility Score: inf
ROOT
ATOM      1  C   UNL     1       8.424  -0.594  -2.217  1.00  0.00     0.127 C 
ENDROOT
BRANCH   1   2
ATOM      2  C   UNL     1       8.460  -1.892  -2.913  1.00  0.00     0.303 C 
ATOM      3  O   UNL     1       9.567  -2.476  -3.063  1.00  0.00    -0.252 OA
BRANCH   2   4
ATOM      4  O   UNL     1       7.302  -2.504  -3.415  1.00  0.00    -0.481 OA
ATOM      5  H   UNL     1       6.982  -3.360  -2.984  1.00  0.00     0.296 HD
ENDBRANCH   2   4
ENDBRANCH   1   2
BRANCH   1   6
ATOM      6  C   UNL     1       7.036   0.021  -2.220  1.00  0.00     0.047 C 
BRANCH   6   7
ATOM      7  C   UNL     1       6.494   0.122  -0.840  1.00  0.00    -0.047 A 
ATOM      8  C   UNL     1       5.881   1.288  -0.404  1.00  0.00     0.004 A 
ATOM      9  C   UNL     1       6.577  -0.913   0.074  1.00  0.00     0.004 A 
ATOM     10  C   UNL     1       5.379   1.416   0.871  1.00  0.00     0.000 A 
ATOM     11  C   UNL     1       6.073  -0.782   1.350  1.00  0.00     0.000 A 
ATOM     12  C   UNL     1       5.468   0.378   1.776  1.00  0.00     0.000 A 
ENDBRANCH   6   7
ENDBRANCH   1   6
TORSDOF 4
ENDMDL
MODEL 2
REMARK VINA RESULT:      -7.3      0.168      1.429
REMARK SMILES O=C(O)CCc1ccccc1
REMARK SMILES IDX 4 1 2 2 1 3 3 4 5 6 6 7 7 8 11 9 8 10 10 11 9 12
REMARK H PARENT 3 5
REMARK Flexibility Score: inf
ROOT
ATOM      1  C   UNL     1       8.387  -0.608  -2.168  1.00  0.00     0.127 C 
ENDROOT
BRANCH   1   2
ATOM      2  C   UNL     1       8.425  -1.886  -2.901  1.00  0.00     0.303 C 
ATOM      3  O   UNL     1       9.530  -2.473  -3.052  1.00  0.00    -0.252 OA
BRANCH   2   4
ATOM      4  O   UNL     1       7.270  -2.475  -3.436  1.00  0.00    -0.481 OA
ATOM      5  H   UNL     1       7.072  -3.441  -3.212  1.00  0.00     0.296 HD
ENDBRANCH   2   4
ENDBRANCH   1   2
BRANCH   1   6
ATOM      6  C   UNL     1       6.993  -0.008  -2.131  1.00  0.00     0.047 C 
BRANCH   6   7
ATOM      7  C   UNL     1       6.479   0.060  -0.739  1.00  0.00    -0.047 A 
ATOM      8  C   UNL     1       6.613  -1.022   0.119  1.00  0.00     0.004 A 
ATOM      9  C   UNL     1       5.842   1.177  -0.230  1.00  0.00     0.004 A 
ATOM     10  C   UNL     1       6.139  -0.994   1.410  1.00  0.00     0.000 A 
ATOM     11  C   UNL     1       5.367   1.204   1.064  1.00  0.00     0.000 A 
ATOM     12  C   UNL     1       5.503   0.126   1.908  1.00  0.00     0.000 A 
ENDBRANCH   6   7
ENDBRANCH   1   6
TORSDOF 4
ENDMDL
MODEL 3
REMARK VINA RESULT:      -6.8      3.379      5.070
REMARK SMILES O=C(O)CCc1ccccc1
REMARK SMILES IDX 4 1 2 2 1 3 3 4 5 6 6 7 7 8 11 9 8 10 10 11 9 12
REMARK H PARENT 3 5
REMARK Flexibility Score: inf
ROOT
ATOM      1  C   UNL     1       4.999   1.781   0.703  1.00  0.00     0.127 C 
ENDROOT
BRANCH   1   2
ATOM      2  C   UNL     1       4.482   1.114   1.910  1.00  0.00     0.303 C 
ATOM      3  O   UNL     1       5.176   0.215   2.458  1.00  0.00    -0.252 OA
BRANCH   2   4
ATOM      4  O   UNL     1       3.241   1.445   2.474  1.00  0.00    -0.481 OA
ATOM      5  H   UNL     1       2.946   2.412   2.459  1.00  0.00     0.296 HD
ENDBRANCH   2   4
ENDBRANCH   1   2
BRANCH   1   6
ATOM      6  C   UNL     1       6.510   1.926   0.731  1.00  0.00     0.047 C 
BRANCH   6   7
ATOM      7  C   UNL     1       7.143   1.115  -0.342  1.00  0.00    -0.047 A 
ATOM      8  C   UNL     1       6.391   0.221  -1.090  1.00  0.00     0.004 A 
ATOM      9  C   UNL     1       8.490   1.194  -0.645  1.00  0.00     0.004 A 
ATOM     10  C   UNL     1       6.949  -0.552  -2.083  1.00  0.00     0.000 A 
ATOM     11  C   UNL     1       9.048   0.420  -1.639  1.00  0.00     0.000 A 
ATOM     12  C   UNL     1       8.295  -0.466  -2.376  1.00  0.00     0.000 A 
ENDBRANCH   6   7
ENDBRANCH   1   6
TORSDOF 4
ENDMDL
MODEL 4
REMARK VINA RESULT:      -6.6      1.893      2.939
REMARK SMILES O=C(O)CCc1ccccc1
REMARK SMILES IDX 4 1 2 2 1 3 3 4 5 6 6 7 7 8 11 9 8 10 10 11 9 12
REMARK H PARENT 3 5
REMARK Flexibility Score: inf
ROOT
ATOM      1  C   UNL     1       8.069  -1.689   1.237  1.00  0.00     0.127 C 
ENDROOT
BRANCH   1   2
ATOM      2  C   UNL     1       8.479  -2.820   0.386  1.00  0.00     0.303 C 
ATOM      3  O   UNL     1       9.214  -3.720   0.876  1.00  0.00    -0.252 OA
BRANCH   2   4
ATOM      4  O   UNL     1       8.079  -2.932  -0.953  1.00  0.00    -0.481 OA
ATOM      5  H   UNL     1       8.680  -3.427  -1.598  1.00  0.00     0.296 HD
ENDBRANCH   2   4
ENDBRANCH   1   2
BRANCH   1   6
ATOM      6  C   UNL     1       6.560  -1.572   1.348  1.00  0.00     0.047 C 
BRANCH   6   7
ATOM      7  C   UNL     1       6.085  -0.271   0.810  1.00  0.00    -0.047 A 
ATOM      8  C   UNL     1       6.338   0.085  -0.507  1.00  0.00     0.004 A 
ATOM      9  C   UNL     1       5.387   0.646   1.575  1.00  0.00     0.004 A 
ATOM     10  C   UNL     1       5.921   1.287  -1.032  1.00  0.00     0.000 A 
ATOM     11  C   UNL     1       4.970   1.849   1.048  1.00  0.00     0.000 A 
ATOM     12  C   UNL     1       5.226   2.195  -0.259  1.00  0.00     0.000 A 
ENDBRANCH   6   7
ENDBRANCH   1   6
TORSDOF 4
ENDMDL
MODEL 5
REMARK VINA RESULT:      -6.5      2.033      2.395
REMARK SMILES O=C(O)CCc1ccccc1
REMARK SMILES IDX 4 1 2 2 1 3 3 4 5 6 6 7 7 8 11 9 8 10 10 11 9 12
REMARK H PARENT 3 5
REMARK Flexibility Score: inf
ROOT
ATOM      1  C   UNL     1       8.586   0.647  -1.780  1.00  0.00     0.127 C 
ENDROOT
BRANCH   1   2
ATOM      2  C   UNL     1       9.689   0.264  -0.882  1.00  0.00     0.303 C 
ATOM      3  O   UNL     1       9.457  -0.532   0.068  1.00  0.00    -0.252 OA
BRANCH   2   4
ATOM      4  O   UNL     1      10.993   0.754  -1.047  1.00  0.00    -0.481 OA
ATOM      5  H   UNL     1      11.769   0.143  -0.835  1.00  0.00     0.296 HD
ENDBRANCH   2   4
ENDBRANCH   1   2
BRANCH   1   6
ATOM      6  C   UNL     1       7.349  -0.206  -1.566  1.00  0.00     0.047 C 
BRANCH   6   7
ATOM      7  C   UNL     1       6.452   0.402  -0.548  1.00  0.00    -0.047 A 
ATOM      8  C   UNL     1       5.794   1.595  -0.807  1.00  0.00     0.004 A 
ATOM      9  C   UNL     1       6.233  -0.169   0.693  1.00  0.00     0.004 A 
ATOM     10  C   UNL     1       4.966   2.189   0.118  1.00  0.00     0.000 A 
ATOM     11  C   UNL     1       5.404   0.427   1.619  1.00  0.00     0.000 A 
ATOM     12  C   UNL     1       4.755   1.612   1.355  1.00  0.00     0.000 A 
ENDBRANCH   6   7
ENDBRANCH   1   6
TORSDOF 4
ENDMDL
