@<TRIPOS>MOLECULE
/home/cewinharhar/GITHUB/reincatalyze/data/processed/docking_pred/2023-Apr-25-2248_maxeplen10_maxtrainstep1000_exh16_gamma099_lrac3e-4_lrcr1e-3/ff0363d9ee1910d446632d9597fe578fef33cb13_ligand_2.pdbqt
 12 12 0 0 0
SMALL
GASTEIGER

@<TRIPOS>ATOM
      1  C          8.4240   -0.5940   -2.2170 C.3     1  UNL1        0.1270
      2  C          8.4600   -1.8920   -2.9130 C.2     1  UNL1        0.3030
      3  O          9.5670   -2.4760   -3.0630 O.2     1  UNL1       -0.2520
      4  O          7.3020   -2.5040   -3.4150 O.3     1  UNL1       -0.4810
      5  H          6.9820   -3.3600   -2.9840 H       1  UNL1        0.2960
      6  C          7.0360    0.0210   -2.2200 C.3     1  UNL1        0.0470
      7  C          6.4940    0.1220   -0.8400 C.2     1  UNL1       -0.0470
      8  C          5.8810    1.2880   -0.4040 C.2     1  UNL1        0.0040
      9  C          6.5770   -0.9130    0.0740 C.2     1  UNL1        0.0040
     10  C          5.3790    1.4160    0.8710 C.2     1  UNL1        0.0000
     11  C          6.0730   -0.7820    1.3500 C.2     1  UNL1        0.0000
     12  C          5.4680    0.3780    1.7760 C.2     1  UNL1        0.0000
@<TRIPOS>BOND
     1     4     5    1
     2     4     2    1
     3     3     2    2
     4     2     1    1
     5     6     1    1
     6     6     7    1
     7     7     8    2
     8     7     9    1
     9     8    10    1
    10     9    11    2
    11    10    12    2
    12    11    12    1
