@<TRIPOS>MOLECULE
/home/cewinharhar/GITHUB/reincatalyze/data/processed/docking_pred/2023-Apr-25-2248_maxeplen10_maxtrainstep1000_exh16_gamma099_lrac3e-4_lrcr1e-3/ff0363d9ee1910d446632d9597fe578fef33cb13_ligand_2.pdbqt
 12 12 0 0 0
SMALL
GASTEIGER

@<TRIPOS>ATOM
      1  C          8.0690   -1.6890    1.2370 C.3     1  UNL1        0.1270
      2  C          8.4790   -2.8200    0.3860 C.2     1  UNL1        0.3030
      3  O          9.2140   -3.7200    0.8760 O.2     1  UNL1       -0.2520
      4  O          8.0790   -2.9320   -0.9530 O.3     1  UNL1       -0.4810
      5  H          8.6800   -3.4270   -1.5980 H       1  UNL1        0.2960
      6  C          6.5600   -1.5720    1.3480 C.3     1  UNL1        0.0470
      7  C          6.0850   -0.2710    0.8100 C.2     1  UNL1       -0.0470
      8  C          6.3380    0.0850   -0.5070 C.2     1  UNL1        0.0040
      9  C          5.3870    0.6460    1.5750 C.2     1  UNL1        0.0040
     10  C          5.9210    1.2870   -1.0320 C.2     1  UNL1        0.0000
     11  C          4.9700    1.8490    1.0480 C.2     1  UNL1        0.0000
     12  C          5.2260    2.1950   -0.2590 C.2     1  UNL1        0.0000
@<TRIPOS>BOND
     1     5     4    1
     2    10     8    1
     3    10    12    2
     4     4     2    1
     5     8     7    2
     6    12    11    1
     7     2     3    2
     8     2     1    1
     9     7     6    1
    10     7     9    1
    11    11     9    2
    12     1     6    1
