@<TRIPOS>MOLECULE
/home/cewinharhar/GITHUB/reincatalyze/data/processed/docking_pred/2023-Apr-25-2248_maxeplen10_maxtrainstep1000_exh16_gamma099_lrac3e-4_lrcr1e-3/ff0363d9ee1910d446632d9597fe578fef33cb13_ligand_2.pdbqt
 12 12 0 0 0
SMALL
GASTEIGER

@<TRIPOS>ATOM
      1  C          8.5860    0.6470   -1.7800 C.3     1  UNL1        0.1270
      2  C          9.6890    0.2640   -0.8820 C.2     1  UNL1        0.3030
      3  O          9.4570   -0.5320    0.0680 O.2     1  UNL1       -0.2520
      4  O         10.9930    0.7540   -1.0470 O.3     1  UNL1       -0.4810
      5  H         11.7690    0.1430   -0.8350 H       1  UNL1        0.2960
      6  C          7.3490   -0.2060   -1.5660 C.3     1  UNL1        0.0470
      7  C          6.4520    0.4020   -0.5480 C.2     1  UNL1       -0.0470
      8  C          5.7940    1.5950   -0.8070 C.2     1  UNL1        0.0040
      9  C          6.2330   -0.1690    0.6930 C.2     1  UNL1        0.0040
     10  C          4.9660    2.1890    0.1180 C.2     1  UNL1        0.0000
     11  C          5.4040    0.4270    1.6190 C.2     1  UNL1        0.0000
     12  C          4.7550    1.6120    1.3550 C.2     1  UNL1        0.0000
@<TRIPOS>BOND
     1     1     6    1
     2     1     2    1
     3     6     7    1
     4     4     2    1
     5     4     5    1
     6     2     3    2
     7     8     7    2
     8     8    10    1
     9     7     9    1
    10    10    12    2
    11     9    11    2
    12    12    11    1
