@<TRIPOS>MOLECULE
/home/cewinharhar/GITHUB/reincatalyze/data/processed/docking_pred/2023-Apr-25-2248_maxeplen10_maxtrainstep1000_exh16_gamma099_lrac3e-4_lrcr1e-3/ff0363d9ee1910d446632d9597fe578fef33cb13_ligand_2.pdbqt
 12 12 0 0 0
SMALL
GASTEIGER

@<TRIPOS>ATOM
      1  C          4.9990    1.7810    0.7030 C.3     1  UNL1        0.1270
      2  C          4.4820    1.1140    1.9100 C.2     1  UNL1        0.3030
      3  O          5.1760    0.2150    2.4580 O.2     1  UNL1       -0.2520
      4  O          3.2410    1.4450    2.4740 O.3     1  UNL1       -0.4810
      5  H          2.9460    2.4120    2.4590 H       1  UNL1        0.2960
      6  C          6.5100    1.9260    0.7310 C.3     1  UNL1        0.0470
      7  C          7.1430    1.1150   -0.3420 C.2     1  UNL1       -0.0470
      8  C          6.3910    0.2210   -1.0900 C.2     1  UNL1        0.0040
      9  C          8.4900    1.1940   -0.6450 C.2     1  UNL1        0.0040
     10  C          6.9490   -0.5520   -2.0830 C.2     1  UNL1        0.0000
     11  C          9.0480    0.4200   -1.6390 C.2     1  UNL1        0.0000
     12  C          8.2950   -0.4660   -2.3760 C.2     1  UNL1        0.0000
@<TRIPOS>BOND
     1    12    10    2
     2    12    11    1
     3    10     8    1
     4    11     9    2
     5     8     7    2
     6     9     7    1
     7     7     6    1
     8     1     6    1
     9     1     2    1
    10     2     3    2
    11     2     4    1
    12     5     4    1
